                                  MODFLOW-2005     
      U.S. GEOLOGICAL SURVEY MODULAR FINITE-DIFFERENCE GROUND-WATER FLOW MODEL
                            VERSION 1.12.00 2/3/2017

 LIST FILE: 2017.list
                         UNIT    2

 OPENING 2017.dis
 FILE TYPE:DIS   UNIT   11   STATUS:OLD    
 FORMAT:FORMATTED              ACCESS:SEQUENTIAL          

 OPENING 2017.bas
 FILE TYPE:BAS6   UNIT   13   STATUS:OLD    
 FORMAT:FORMATTED              ACCESS:SEQUENTIAL          

 OPENING 2017.bcf
 FILE TYPE:BCF6   UNIT   15   STATUS:OLD    
 FORMAT:FORMATTED              ACCESS:SEQUENTIAL          

 OPENING 2017.riv
 FILE TYPE:RIV   UNIT   18   STATUS:OLD    
 FORMAT:FORMATTED              ACCESS:SEQUENTIAL          

 OPENING 2017.rch
 FILE TYPE:RCH   UNIT   19   STATUS:OLD    
 FORMAT:FORMATTED              ACCESS:SEQUENTIAL          

 OPENING 2017.oc
 FILE TYPE:OC   UNIT   14   STATUS:OLD    
 FORMAT:FORMATTED              ACCESS:SEQUENTIAL          

 OPENING 2017.pcg
 FILE TYPE:PCG   UNIT   27   STATUS:OLD    
 FORMAT:FORMATTED              ACCESS:SEQUENTIAL          

 OPENING 2017.hds
 FILE TYPE:DATA(BINARY)   UNIT   51   STATUS:REPLACE
 FORMAT:BINARY                 ACCESS:SEQUENTIAL          

 BAS -- BASIC PACKAGE, VERSION 7, 5/2/2005 INPUT READ FROM UNIT   13
 
 MODFLOW was compiled using mixed precision
 Precision of REAL variables:           6
 Precision of DOUBLE PRECISION variables:          15

 DISCRETIZATION INPUT DATA READ FROM UNIT   11
 # DIS package for  MODFLOW-2005, generated by Flopy.
    2 LAYERS         1 ROWS      1000 COLUMNS
  298 STRESS PERIOD(S) IN SIMULATION
 MODEL TIME UNIT IS DAYS
 MODEL LENGTH UNIT IS METERS
  Confining bed flag for each layer:
   0   0

                     DELR =   1.00000    

                     DELC =   10.0000    

 TOP ELEVATION OF LAYER 1 =   5.00000    

   MODEL LAYER BOTTOM EL. =  -5.00000     FOR LAYER   1

   MODEL LAYER BOTTOM EL. =  -25.0000     FOR LAYER   2


 STRESS PERIOD     LENGTH       TIME STEPS     MULTIPLIER FOR DELT    SS FLAG
 ----------------------------------------------------------------------------
        1         1.000000          1                    1.000         SS
        2         1.000000          1                    1.000         TR
        3         1.000000          1                    1.000         TR
        4         1.000000          1                    1.000         TR
        5         1.000000          1                    1.000         TR
        6         1.000000          1                    1.000         TR
        7         1.000000          1                    1.000         TR
        8         1.000000          1                    1.000         TR
        9         1.000000          1                    1.000         TR
       10         1.000000          1                    1.000         TR
       11         1.000000          1                    1.000         TR
       12         1.000000          1                    1.000         TR
       13         1.000000          1                    1.000         TR
       14         1.000000          1                    1.000         TR
       15         1.000000          1                    1.000         TR
       16         1.000000          1                    1.000         TR
       17         1.000000          1                    1.000         TR
       18         1.000000          1                    1.000         TR
       19         1.000000          1                    1.000         TR
       20         1.000000          1                    1.000         TR
       21         1.000000          1                    1.000         TR
       22         1.000000          1                    1.000         TR
       23         1.000000          1                    1.000         TR
       24         1.000000          1                    1.000         TR
       25         1.000000          1                    1.000         TR
       26         1.000000          1                    1.000         TR
       27         1.000000          1                    1.000         TR
       28         1.000000          1                    1.000         TR
       29         1.000000          1                    1.000         TR
       30         1.000000          1                    1.000         TR
       31         1.000000          1                    1.000         TR
       32         1.000000          1                    1.000         TR
       33         1.000000          1                    1.000         TR
       34         1.000000          1                    1.000         TR
       35         1.000000          1                    1.000         TR
       36         1.000000          1                    1.000         TR
       37         1.000000          1                    1.000         TR
       38         1.000000          1                    1.000         TR
       39         1.000000          1                    1.000         TR
       40         1.000000          1                    1.000         TR
       41         1.000000          1                    1.000         TR
       42         1.000000          1                    1.000         TR
       43         1.000000          1                    1.000         TR
       44         1.000000          1                    1.000         TR
       45         1.000000          1                    1.000         TR
       46         1.000000          1                    1.000         TR
       47         1.000000          1                    1.000         TR
       48         1.000000          1                    1.000         TR
       49         1.000000          1                    1.000         TR
       50         1.000000          1                    1.000         TR
       51         1.000000          1                    1.000         TR
       52         1.000000          1                    1.000         TR
       53         1.000000          1                    1.000         TR
       54         1.000000          1                    1.000         TR
       55         1.000000          1                    1.000         TR
       56         1.000000          1                    1.000         TR
       57         1.000000          1                    1.000         TR
       58         1.000000          1                    1.000         TR
       59         1.000000          1                    1.000         TR
       60         1.000000          1                    1.000         TR
       61         1.000000          1                    1.000         TR
       62         1.000000          1                    1.000         TR
       63         1.000000          1                    1.000         TR
       64         1.000000          1                    1.000         TR
       65         1.000000          1                    1.000         TR
       66         1.000000          1                    1.000         TR
       67         1.000000          1                    1.000         TR
       68         1.000000          1                    1.000         TR
       69         1.000000          1                    1.000         TR
       70         1.000000          1                    1.000         TR
       71         1.000000          1                    1.000         TR
       72         1.000000          1                    1.000         TR
       73         1.000000          1                    1.000         TR
       74         1.000000          1                    1.000         TR
       75         1.000000          1                    1.000         TR
       76         1.000000          1                    1.000         TR
       77         1.000000          1                    1.000         TR
       78         1.000000          1                    1.000         TR
       79         1.000000          1                    1.000         TR
       80         1.000000          1                    1.000         TR
       81         1.000000          1                    1.000         TR
       82         1.000000          1                    1.000         TR
       83         1.000000          1                    1.000         TR
       84         1.000000          1                    1.000         TR
       85         1.000000          1                    1.000         TR
       86         1.000000          1                    1.000         TR
       87         1.000000          1                    1.000         TR
       88         1.000000          1                    1.000         TR
       89         1.000000          1                    1.000         TR
       90         1.000000          1                    1.000         TR
       91         1.000000          1                    1.000         TR
       92         1.000000          1                    1.000         TR
       93         1.000000          1                    1.000         TR
       94         1.000000          1                    1.000         TR
       95         1.000000          1                    1.000         TR
       96         1.000000          1                    1.000         TR
       97         1.000000          1                    1.000         TR
       98         1.000000          1                    1.000         TR
       99         1.000000          1                    1.000         TR
      100         1.000000          1                    1.000         TR
      101         1.000000          1                    1.000         TR
      102         1.000000          1                    1.000         TR
      103         1.000000          1                    1.000         TR
      104         1.000000          1                    1.000         TR
      105         1.000000          1                    1.000         TR
      106         1.000000          1                    1.000         TR
      107         1.000000          1                    1.000         TR
      108         1.000000          1                    1.000         TR
      109         1.000000          1                    1.000         TR
      110         1.000000          1                    1.000         TR
      111         1.000000          1                    1.000         TR
      112         1.000000          1                    1.000         TR
      113         1.000000          1                    1.000         TR
      114         1.000000          1                    1.000         TR
      115         1.000000          1                    1.000         TR
      116         1.000000          1                    1.000         TR
      117         1.000000          1                    1.000         TR
      118         1.000000          1                    1.000         TR
      119         1.000000          1                    1.000         TR
      120         1.000000          1                    1.000         TR
      121         1.000000          1                    1.000         TR
      122         1.000000          1                    1.000         TR
      123         1.000000          1                    1.000         TR
      124         1.000000          1                    1.000         TR
      125         1.000000          1                    1.000         TR
      126         1.000000          1                    1.000         TR
      127         1.000000          1                    1.000         TR
      128         1.000000          1                    1.000         TR
      129         1.000000          1                    1.000         TR
      130         1.000000          1                    1.000         TR
      131         1.000000          1                    1.000         TR
      132         1.000000          1                    1.000         TR
      133         1.000000          1                    1.000         TR
      134         1.000000          1                    1.000         TR
      135         1.000000          1                    1.000         TR
      136         1.000000          1                    1.000         TR
      137         1.000000          1                    1.000         TR
      138         1.000000          1                    1.000         TR
      139         1.000000          1                    1.000         TR
      140         1.000000          1                    1.000         TR
      141         1.000000          1                    1.000         TR
      142         1.000000          1                    1.000         TR
      143         1.000000          1                    1.000         TR
      144         1.000000          1                    1.000         TR
      145         1.000000          1                    1.000         TR
      146         1.000000          1                    1.000         TR
      147         1.000000          1                    1.000         TR
      148         1.000000          1                    1.000         TR
      149         1.000000          1                    1.000         TR
      150         1.000000          1                    1.000         TR
      151         1.000000          1                    1.000         TR
      152         1.000000          1                    1.000         TR
      153         1.000000          1                    1.000         TR
      154         1.000000          1                    1.000         TR
      155         1.000000          1                    1.000         TR
      156         1.000000          1                    1.000         TR
      157         1.000000          1                    1.000         TR
      158         1.000000          1                    1.000         TR
      159         1.000000          1                    1.000         TR
      160         1.000000          1                    1.000         TR
      161         1.000000          1                    1.000         TR
      162         1.000000          1                    1.000         TR
      163         1.000000          1                    1.000         TR
      164         1.000000          1                    1.000         TR
      165         1.000000          1                    1.000         TR
      166         1.000000          1                    1.000         TR
      167         1.000000          1                    1.000         TR
      168         1.000000          1                    1.000         TR
      169         1.000000          1                    1.000         TR
      170         1.000000          1                    1.000         TR
      171         1.000000          1                    1.000         TR
      172         1.000000          1                    1.000         TR
      173         1.000000          1                    1.000         TR
      174         1.000000          1                    1.000         TR
      175         1.000000          1                    1.000         TR
      176         1.000000          1                    1.000         TR
      177         1.000000          1                    1.000         TR
      178         1.000000          1                    1.000         TR
      179         1.000000          1                    1.000         TR
      180         1.000000          1                    1.000         TR
      181         1.000000          1                    1.000         TR
      182         1.000000          1                    1.000         TR
      183         1.000000          1                    1.000         TR
      184         1.000000          1                    1.000         TR
      185         1.000000          1                    1.000         TR
      186         1.000000          1                    1.000         TR
      187         1.000000          1                    1.000         TR
      188         1.000000          1                    1.000         TR
      189         1.000000          1                    1.000         TR
      190         1.000000          1                    1.000         TR
      191         1.000000          1                    1.000         TR
      192         1.000000          1                    1.000         TR
      193         1.000000          1                    1.000         TR
      194         1.000000          1                    1.000         TR
      195         1.000000          1                    1.000         TR
      196         1.000000          1                    1.000         TR
      197         1.000000          1                    1.000         TR
      198         1.000000          1                    1.000         TR
      199         1.000000          1                    1.000         TR
      200         1.000000          1                    1.000         TR
      201         1.000000          1                    1.000         TR
      202         1.000000          1                    1.000         TR
      203         1.000000          1                    1.000         TR
      204         1.000000          1                    1.000         TR
      205         1.000000          1                    1.000         TR
      206         1.000000          1                    1.000         TR
      207         1.000000          1                    1.000         TR
      208         1.000000          1                    1.000         TR
      209         1.000000          1                    1.000         TR
      210         1.000000          1                    1.000         TR
      211         1.000000          1                    1.000         TR
      212         1.000000          1                    1.000         TR
      213         1.000000          1                    1.000         TR
      214         1.000000          1                    1.000         TR
      215         1.000000          1                    1.000         TR
      216         1.000000          1                    1.000         TR
      217         1.000000          1                    1.000         TR
      218         1.000000          1                    1.000         TR
      219         1.000000          1                    1.000         TR
      220         1.000000          1                    1.000         TR
      221         1.000000          1                    1.000         TR
      222         1.000000          1                    1.000         TR
      223         1.000000          1                    1.000         TR
      224         1.000000          1                    1.000         TR
      225         1.000000          1                    1.000         TR
      226         1.000000          1                    1.000         TR
      227         1.000000          1                    1.000         TR
      228         1.000000          1                    1.000         TR
      229         1.000000          1                    1.000         TR
      230         1.000000          1                    1.000         TR
      231         1.000000          1                    1.000         TR
      232         1.000000          1                    1.000         TR
      233         1.000000          1                    1.000         TR
      234         1.000000          1                    1.000         TR
      235         1.000000          1                    1.000         TR
      236         1.000000          1                    1.000         TR
      237         1.000000          1                    1.000         TR
      238         1.000000          1                    1.000         TR
      239         1.000000          1                    1.000         TR
      240         1.000000          1                    1.000         TR
      241         1.000000          1                    1.000         TR
      242         1.000000          1                    1.000         TR
      243         1.000000          1                    1.000         TR
      244         1.000000          1                    1.000         TR
      245         1.000000          1                    1.000         TR
      246         1.000000          1                    1.000         TR
      247         1.000000          1                    1.000         TR
      248         1.000000          1                    1.000         TR
      249         1.000000          1                    1.000         TR
      250         1.000000          1                    1.000         TR
      251         1.000000          1                    1.000         TR
      252         1.000000          1                    1.000         TR
      253         1.000000          1                    1.000         TR
      254         1.000000          1                    1.000         TR
      255         1.000000          1                    1.000         TR
      256         1.000000          1                    1.000         TR
      257         1.000000          1                    1.000         TR
      258         1.000000          1                    1.000         TR
      259         1.000000          1                    1.000         TR
      260         1.000000          1                    1.000         TR
      261         1.000000          1                    1.000         TR
      262         1.000000          1                    1.000         TR
      263         1.000000          1                    1.000         TR
      264         1.000000          1                    1.000         TR
      265         1.000000          1                    1.000         TR
      266         1.000000          1                    1.000         TR
      267         1.000000          1                    1.000         TR
      268         1.000000          1                    1.000         TR
      269         1.000000          1                    1.000         TR
      270         1.000000          1                    1.000         TR
      271         1.000000          1                    1.000         TR
      272         1.000000          1                    1.000         TR
      273         1.000000          1                    1.000         TR
      274         1.000000          1                    1.000         TR
      275         1.000000          1                    1.000         TR
      276         1.000000          1                    1.000         TR
      277         1.000000          1                    1.000         TR
      278         1.000000          1                    1.000         TR
      279         1.000000          1                    1.000         TR
      280         1.000000          1                    1.000         TR
      281         1.000000          1                    1.000         TR
      282         1.000000          1                    1.000         TR
      283         1.000000          1                    1.000         TR
      284         1.000000          1                    1.000         TR
      285         1.000000          1                    1.000         TR
      286         1.000000          1                    1.000         TR
      287         1.000000          1                    1.000         TR
      288         1.000000          1                    1.000         TR
      289         1.000000          1                    1.000         TR
      290         1.000000          1                    1.000         TR
      291         1.000000          1                    1.000         TR
      292         1.000000          1                    1.000         TR
      293         1.000000          1                    1.000         TR
      294         1.000000          1                    1.000         TR
      295         1.000000          1                    1.000         TR
      296         1.000000          1                    1.000         TR
      297         1.000000          1                    1.000         TR
      298         1.000000          1                    1.000         TR

 COMBINED STEADY-STATE AND TRANSIENT SIMULATION



 
 # BAS6 package for  MODFLOW-2005, generated by Flopy.                           
 THE FREE FORMAT OPTION HAS BEEN SELECTED



                     BOUNDARY ARRAY FOR LAYER   1
 READING ON UNIT   13 WITH FORMAT: (1000I10)           



                     BOUNDARY ARRAY FOR LAYER   2
 READING ON UNIT   13 WITH FORMAT: (1000I10)           

 AQUIFER HEAD WILL BE SET TO  -999.99     AT ALL NO-FLOW NODES (IBOUND=0).

             INITIAL HEAD =   0.00000     FOR LAYER   1

             INITIAL HEAD =   0.00000     FOR LAYER   2
 # OC package for  MODFLOW-2005, generated by Flopy.

 OUTPUT CONTROL IS SPECIFIED ONLY AT TIME STEPS FOR WHICH OUTPUT IS DESIRED
 COMPACT CELL-BY-CELL BUDGET FILES WILL BE WRITTEN
 AUXILIARY DATA WILL BE SAVED IN CELL-BY-CELL BUDGET FILES
 HEAD PRINT FORMAT CODE IS   0    DRAWDOWN PRINT FORMAT CODE IS   0
 HEADS WILL BE SAVED ON UNIT   51    DRAWDOWNS WILL BE SAVED ON UNIT    0

 BCF -- BLOCK-CENTERED FLOW PACKAGE, VERSION 7, 5/2/2005
         INPUT READ FROM UNIT 15
 TRANSIENT SIMULATION
 HEAD AT CELLS THAT CONVERT TO DRY= -0.10000E+31
 WETTING CAPABILITY IS NOT ACTIVE
      LAYER  LAYER-TYPE CODE     INTERBLOCK T
      --------------------------------------------
         1            1          0 -- HARMONIC    
         2            3          0 -- HARMONIC    

 COLUMN TO ROW ANISOTROPY =   1.00000    

     PRIMARY STORAGE COEF =  0.150000     FOR LAYER   1

    HYD. COND. ALONG ROWS =   10.0000     FOR LAYER   1

 VERT HYD COND /THICKNESS =  1.000000E-04 FOR LAYER   1

     PRIMARY STORAGE COEF =  0.150000     FOR LAYER   2

    HYD. COND. ALONG ROWS =   10.0000     FOR LAYER   2

   SECONDARY STORAGE COEF =  0.150000     FOR LAYER   2

 RIV -- RIVER PACKAGE, VERSION 7, 5/2/2005 INPUT READ FROM UNIT   18
 # RIV package for  MODFLOW-2005, generated by Flopy.
 No named parameters
 MAXIMUM OF      2 ACTIVE RIVER REACHES AT ONE TIME


     0 River parameters

 RCH -- RECHARGE PACKAGE, VERSION 7, 5/2/2005 INPUT READ FROM UNIT   19
 # RCH package for  MODFLOW-2005, generated by Flopy.
 No named parameters
 OPTION 3 -- RECHARGE TO HIGHEST ACTIVE NODE IN EACH VERTICAL COLUMN


     0 Recharge parameters

 PCG -- CONJUGATE-GRADIENT SOLUTION PACKAGE, VERSION 7, 5/2/2005
 # PCG package for  MODFLOW-2005, generated by Flopy.
 MAXIMUM OF     50 CALLS OF SOLUTION ROUTINE
 MAXIMUM OF     30 INTERNAL ITERATIONS PER CALL TO SOLUTION ROUTINE
 MATRIX PRECONDITIONING TYPE :    1



                                    SOLUTION BY THE CONJUGATE-GRADIENT METHOD
                                   -------------------------------------------
                    MAXIMUM NUMBER OF CALLS TO PCG ROUTINE =       50
                        MAXIMUM ITERATIONS PER CALL TO PCG =       30
                               MATRIX PRECONDITIONING TYPE =        1
        RELAXATION FACTOR (ONLY USED WITH PRECOND. TYPE 1) =    0.10000E+01
 PARAMETER OF POLYNOMIAL PRECOND. = 2 (2) OR IS CALCULATED :        0
                         HEAD CHANGE CRITERION FOR CLOSURE =    0.10000E-04
                     RESIDUAL CHANGE CRITERION FOR CLOSURE =    0.10000E-04
            PCG HEAD AND RESIDUAL CHANGE PRINTOUT INTERVAL =      999
     PRINTING FROM SOLVER IS LIMITED(1) OR SUPPRESSED (>1) =        3
                            STEADY-STATE DAMPING PARAMETER =    0.10000E+01
                               TRANSIENT DAMPING PARAMETER =    0.10000E+01
1
                            STRESS PERIOD NO.    1, LENGTH =   1.000000    
                            -----------------------------------------------

                              NUMBER OF TIME STEPS =     1

                               MULTIPLIER FOR DELT =     1.000

                            INITIAL TIME STEP SIZE =   1.000000    

 REACH NO.  LAYER   ROW   COL     STAGE      CONDUCTANCE     BOTTOM EL.         
 -------------------------------------------------------------------------------
      1      1      1      1       3.000           100.0           2.000    
      2      1      1   1000       3.000           100.0           2.000    

      2 RIVER REACHES

                 RECHARGE =  7.000000E-04
 
 SOLVING FOR HEAD 

 OUTPUT CONTROL FOR STRESS PERIOD    1   TIME STEP    1
    SAVE HEAD FOR ALL LAYERS

 HEAD WILL BE SAVED ON UNIT   51 AT END OF TIME STEP    1, STRESS PERIOD    1
1
  VOLUMETRIC BUDGET FOR ENTIRE MODEL AT END OF TIME STEP    1, STRESS PERIOD   1
  ------------------------------------------------------------------------------

     CUMULATIVE VOLUMES      L**3       RATES FOR THIS TIME STEP      L**3/T
     ------------------                 ------------------------

           IN:                                      IN:
           ---                                      ---
             STORAGE =           0.0000               STORAGE =           0.0000
       CONSTANT HEAD =           0.0000         CONSTANT HEAD =           0.0000
       RIVER LEAKAGE =           0.0000         RIVER LEAKAGE =           0.0000
            RECHARGE =           7.0000              RECHARGE =           7.0000

            TOTAL IN =           7.0000              TOTAL IN =           7.0000

          OUT:                                     OUT:
          ----                                     ----
             STORAGE =           0.0000               STORAGE =           0.0000
       CONSTANT HEAD =           3.2546         CONSTANT HEAD =           3.2546
       RIVER LEAKAGE =           3.7454         RIVER LEAKAGE =           3.7454
            RECHARGE =           0.0000              RECHARGE =           0.0000

           TOTAL OUT =           7.0000             TOTAL OUT =           7.0000

            IN - OUT =       2.2888E-05              IN - OUT =       2.2888E-05

 PERCENT DISCREPANCY =           0.00     PERCENT DISCREPANCY =           0.00






         TIME SUMMARY AT END OF TIME STEP    1 IN STRESS PERIOD    1
                    SECONDS     MINUTES      HOURS       DAYS        YEARS
                    -----------------------------------------------------------
   TIME STEP LENGTH  86400.      1440.0      24.000      1.0000     2.73785E-03
 STRESS PERIOD TIME  86400.      1440.0      24.000      1.0000     2.73785E-03
         TOTAL TIME  86400.      1440.0      24.000      1.0000     2.73785E-03
1
1
                            STRESS PERIOD NO.    2, LENGTH =   1.000000    
                            -----------------------------------------------

                              NUMBER OF TIME STEPS =     1

                               MULTIPLIER FOR DELT =     1.000

                            INITIAL TIME STEP SIZE =   1.000000    

 REUSING NON-PARAMETER RIVER REACHES FROM LAST STRESS PERIOD

      2 RIVER REACHES

 REUSING RECH FROM LAST STRESS PERIOD
 
 SOLVING FOR HEAD 

 OUTPUT CONTROL FOR STRESS PERIOD    2   TIME STEP    1
    SAVE HEAD FOR ALL LAYERS

 HEAD WILL BE SAVED ON UNIT   51 AT END OF TIME STEP    1, STRESS PERIOD    2
1
  VOLUMETRIC BUDGET FOR ENTIRE MODEL AT END OF TIME STEP    1, STRESS PERIOD   2
  ------------------------------------------------------------------------------

     CUMULATIVE VOLUMES      L**3       RATES FOR THIS TIME STEP      L**3/T
     ------------------                 ------------------------

           IN:                                      IN:
           ---                                      ---
             STORAGE =       3.3617E-05               STORAGE =       3.3617E-05
       CONSTANT HEAD =           0.0000         CONSTANT HEAD =           0.0000
       RIVER LEAKAGE =           0.0000         RIVER LEAKAGE =           0.0000
            RECHARGE =          14.0000              RECHARGE =           7.0000

            TOTAL IN =          14.0000              TOTAL IN =           7.0000

          OUT:                                     OUT:
          ----                                     ----
             STORAGE =       6.9141E-06               STORAGE =       6.9141E-06
       CONSTANT HEAD =           6.5091         CONSTANT HEAD =           3.2546
       RIVER LEAKAGE =           7.4908         RIVER LEAKAGE =           3.7454
            RECHARGE =           0.0000              RECHARGE =           0.0000

           TOTAL OUT =          13.9999             TOTAL OUT =           7.0000

            IN - OUT =       9.1553E-05              IN - OUT =       6.9618E-05

 PERCENT DISCREPANCY =           0.00     PERCENT DISCREPANCY =           0.00






         TIME SUMMARY AT END OF TIME STEP    1 IN STRESS PERIOD    2
                    SECONDS     MINUTES      HOURS       DAYS        YEARS
                    -----------------------------------------------------------
   TIME STEP LENGTH  86400.      1440.0      24.000      1.0000     2.73785E-03
 STRESS PERIOD TIME  86400.      1440.0      24.000      1.0000     2.73785E-03
         TOTAL TIME 1.72800E+05  2880.0      48.000      2.0000     5.47570E-03
1
1
                            STRESS PERIOD NO.    3, LENGTH =   1.000000    
                            -----------------------------------------------

                              NUMBER OF TIME STEPS =     1

                               MULTIPLIER FOR DELT =     1.000

                            INITIAL TIME STEP SIZE =   1.000000    

 REUSING NON-PARAMETER RIVER REACHES FROM LAST STRESS PERIOD

      2 RIVER REACHES

                 RECHARGE =  1.000000E-04
 
 SOLVING FOR HEAD 

 OUTPUT CONTROL FOR STRESS PERIOD    3   TIME STEP    1
    SAVE HEAD FOR ALL LAYERS

 HEAD WILL BE SAVED ON UNIT   51 AT END OF TIME STEP    1, STRESS PERIOD    3
1
  VOLUMETRIC BUDGET FOR ENTIRE MODEL AT END OF TIME STEP    1, STRESS PERIOD   3
  ------------------------------------------------------------------------------

     CUMULATIVE VOLUMES      L**3       RATES FOR THIS TIME STEP      L**3/T
     ------------------                 ------------------------

           IN:                                      IN:
           ---                                      ---
             STORAGE =           5.7896               STORAGE =           5.7896
       CONSTANT HEAD =           0.0000         CONSTANT HEAD =           0.0000
       RIVER LEAKAGE =           0.0000         RIVER LEAKAGE =           0.0000
            RECHARGE =          15.0000              RECHARGE =           1.0000

            TOTAL IN =          20.7896              TOTAL IN =           6.7896

          OUT:                                     OUT:
          ----                                     ----
             STORAGE =       6.9141E-06               STORAGE =           0.0000
       CONSTANT HEAD =           9.7635         CONSTANT HEAD =           3.2543
       RIVER LEAKAGE =          11.0260         RIVER LEAKAGE =           3.5351
            RECHARGE =           0.0000              RECHARGE =           0.0000

           TOTAL OUT =          20.7894             TOTAL OUT =           6.7895

            IN - OUT =       1.5640E-04              IN - OUT =       6.3896E-05

 PERCENT DISCREPANCY =           0.00     PERCENT DISCREPANCY =           0.00






         TIME SUMMARY AT END OF TIME STEP    1 IN STRESS PERIOD    3
                    SECONDS     MINUTES      HOURS       DAYS        YEARS
                    -----------------------------------------------------------
   TIME STEP LENGTH  86400.      1440.0      24.000      1.0000     2.73785E-03
 STRESS PERIOD TIME  86400.      1440.0      24.000      1.0000     2.73785E-03
         TOTAL TIME 2.59200E+05  4320.0      72.000      3.0000     8.21355E-03
1
1
                            STRESS PERIOD NO.    4, LENGTH =   1.000000    
                            -----------------------------------------------

                              NUMBER OF TIME STEPS =     1

                               MULTIPLIER FOR DELT =     1.000

                            INITIAL TIME STEP SIZE =   1.000000    

 REUSING NON-PARAMETER RIVER REACHES FROM LAST STRESS PERIOD

      2 RIVER REACHES

                 RECHARGE =  1.800000E-03
 
 SOLVING FOR HEAD 

 OUTPUT CONTROL FOR STRESS PERIOD    4   TIME STEP    1
    SAVE HEAD FOR ALL LAYERS

 HEAD WILL BE SAVED ON UNIT   51 AT END OF TIME STEP    1, STRESS PERIOD    4
1
  VOLUMETRIC BUDGET FOR ENTIRE MODEL AT END OF TIME STEP    1, STRESS PERIOD   4
  ------------------------------------------------------------------------------

     CUMULATIVE VOLUMES      L**3       RATES FOR THIS TIME STEP      L**3/T
     ------------------                 ------------------------

           IN:                                      IN:
           ---                                      ---
             STORAGE =           5.7896               STORAGE =           0.0000
       CONSTANT HEAD =           0.0000         CONSTANT HEAD =           0.0000
       RIVER LEAKAGE =           0.0000         RIVER LEAKAGE =           0.0000
            RECHARGE =          33.0000              RECHARGE =          18.0000

            TOTAL IN =          38.7896              TOTAL IN =          18.0000

          OUT:                                     OUT:
          ----                                     ----
             STORAGE =          10.7459               STORAGE =          10.7459
       CONSTANT HEAD =          13.0181         CONSTANT HEAD =           3.2546
       RIVER LEAKAGE =          15.0256         RIVER LEAKAGE =           3.9996
            RECHARGE =           0.0000              RECHARGE =           0.0000

           TOTAL OUT =          38.7896             TOTAL OUT =          18.0001

            IN - OUT =       1.1444E-05              IN - OUT =      -1.4496E-04

 PERCENT DISCREPANCY =           0.00     PERCENT DISCREPANCY =          -0.00






         TIME SUMMARY AT END OF TIME STEP    1 IN STRESS PERIOD    4
                    SECONDS     MINUTES      HOURS       DAYS        YEARS
                    -----------------------------------------------------------
   TIME STEP LENGTH  86400.      1440.0      24.000      1.0000     2.73785E-03
 STRESS PERIOD TIME  86400.      1440.0      24.000      1.0000     2.73785E-03
         TOTAL TIME 3.45600E+05  5760.0      96.000      4.0000     1.09514E-02
1
1
                            STRESS PERIOD NO.    5, LENGTH =   1.000000    
                            -----------------------------------------------

                              NUMBER OF TIME STEPS =     1

                               MULTIPLIER FOR DELT =     1.000

                            INITIAL TIME STEP SIZE =   1.000000    

 REUSING NON-PARAMETER RIVER REACHES FROM LAST STRESS PERIOD

      2 RIVER REACHES

                 RECHARGE =  1.000000E-04
 
 SOLVING FOR HEAD 

 OUTPUT CONTROL FOR STRESS PERIOD    5   TIME STEP    1
    SAVE HEAD FOR ALL LAYERS

 HEAD WILL BE SAVED ON UNIT   51 AT END OF TIME STEP    1, STRESS PERIOD    5
1
  VOLUMETRIC BUDGET FOR ENTIRE MODEL AT END OF TIME STEP    1, STRESS PERIOD   5
  ------------------------------------------------------------------------------

     CUMULATIVE VOLUMES      L**3       RATES FOR THIS TIME STEP      L**3/T
     ------------------                 ------------------------

           IN:                                      IN:
           ---                                      ---
             STORAGE =          11.7183               STORAGE =           5.9287
       CONSTANT HEAD =           0.0000         CONSTANT HEAD =           0.0000
       RIVER LEAKAGE =           0.0000         RIVER LEAKAGE =           0.0000
            RECHARGE =          34.0000              RECHARGE =           1.0000

            TOTAL IN =          45.7183              TOTAL IN =           6.9287

          OUT:                                     OUT:
          ----                                     ----
             STORAGE =          10.7459               STORAGE =           0.0000
       CONSTANT HEAD =          16.2726         CONSTANT HEAD =           3.2545
       RIVER LEAKAGE =          18.6997         RIVER LEAKAGE =           3.6741
            RECHARGE =           0.0000              RECHARGE =           0.0000

           TOTAL OUT =          45.7182             TOTAL OUT =           6.9286

            IN - OUT =       5.3406E-05              IN - OUT =       3.8624E-05

 PERCENT DISCREPANCY =           0.00     PERCENT DISCREPANCY =           0.00






         TIME SUMMARY AT END OF TIME STEP    1 IN STRESS PERIOD    5
                    SECONDS     MINUTES      HOURS       DAYS        YEARS
                    -----------------------------------------------------------
   TIME STEP LENGTH  86400.      1440.0      24.000      1.0000     2.73785E-03
 STRESS PERIOD TIME  86400.      1440.0      24.000      1.0000     2.73785E-03
         TOTAL TIME 4.32000E+05  7200.0      120.00      5.0000     1.36893E-02
1
1
                            STRESS PERIOD NO.    6, LENGTH =   1.000000    
                            -----------------------------------------------

                              NUMBER OF TIME STEPS =     1

                               MULTIPLIER FOR DELT =     1.000

                            INITIAL TIME STEP SIZE =   1.000000    

 REUSING NON-PARAMETER RIVER REACHES FROM LAST STRESS PERIOD

      2 RIVER REACHES

                 RECHARGE =  6.000000E-04
 
 SOLVING FOR HEAD 

 OUTPUT CONTROL FOR STRESS PERIOD    6   TIME STEP    1
    SAVE HEAD FOR ALL LAYERS

 HEAD WILL BE SAVED ON UNIT   51 AT END OF TIME STEP    1, STRESS PERIOD    6
1
  VOLUMETRIC BUDGET FOR ENTIRE MODEL AT END OF TIME STEP    1, STRESS PERIOD   6
  ------------------------------------------------------------------------------

     CUMULATIVE VOLUMES      L**3       RATES FOR THIS TIME STEP      L**3/T
     ------------------                 ------------------------

           IN:                                      IN:
           ---                                      ---
             STORAGE =          12.6530               STORAGE =           0.9347
       CONSTANT HEAD =           0.0000         CONSTANT HEAD =           0.0000
       RIVER LEAKAGE =           0.0000         RIVER LEAKAGE =           0.0000
            RECHARGE =          40.0000              RECHARGE =           6.0000

            TOTAL IN =          52.6530              TOTAL IN =           6.9347

          OUT:                                     OUT:
          ----                                     ----
             STORAGE =          10.7463               STORAGE =       3.8910E-04
       CONSTANT HEAD =          19.5271         CONSTANT HEAD =           3.2545
       RIVER LEAKAGE =          22.3796         RIVER LEAKAGE =           3.6799
            RECHARGE =           0.0000              RECHARGE =           0.0000

           TOTAL OUT =          52.6530             TOTAL OUT =           6.9348

            IN - OUT =      -1.1444E-05              IN - OUT =      -6.3419E-05

 PERCENT DISCREPANCY =          -0.00     PERCENT DISCREPANCY =          -0.00






         TIME SUMMARY AT END OF TIME STEP    1 IN STRESS PERIOD    6
                    SECONDS     MINUTES      HOURS       DAYS        YEARS
                    -----------------------------------------------------------
   TIME STEP LENGTH  86400.      1440.0      24.000      1.0000     2.73785E-03
 STRESS PERIOD TIME  86400.      1440.0      24.000      1.0000     2.73785E-03
         TOTAL TIME 5.18400E+05  8640.0      144.00      6.0000     1.64271E-02
1
1
                            STRESS PERIOD NO.    7, LENGTH =   1.000000    
                            -----------------------------------------------

                              NUMBER OF TIME STEPS =     1

                               MULTIPLIER FOR DELT =     1.000

                            INITIAL TIME STEP SIZE =   1.000000    

 REUSING NON-PARAMETER RIVER REACHES FROM LAST STRESS PERIOD

      2 RIVER REACHES

                 RECHARGE =  1.400000E-03
 
 SOLVING FOR HEAD 

 OUTPUT CONTROL FOR STRESS PERIOD    7   TIME STEP    1
    SAVE HEAD FOR ALL LAYERS

 HEAD WILL BE SAVED ON UNIT   51 AT END OF TIME STEP    1, STRESS PERIOD    7
1
  VOLUMETRIC BUDGET FOR ENTIRE MODEL AT END OF TIME STEP    1, STRESS PERIOD   7
  ------------------------------------------------------------------------------

     CUMULATIVE VOLUMES      L**3       RATES FOR THIS TIME STEP      L**3/T
     ------------------                 ------------------------

           IN:                                      IN:
           ---                                      ---
             STORAGE =          12.6530               STORAGE =           0.0000
       CONSTANT HEAD =           0.0000         CONSTANT HEAD =           0.0000
       RIVER LEAKAGE =           0.0000         RIVER LEAKAGE =           0.0000
            RECHARGE =          54.0000              RECHARGE =          14.0000

            TOTAL IN =          66.6530              TOTAL IN =          14.0000

          OUT:                                     OUT:
          ----                                     ----
             STORAGE =          17.5426               STORAGE =           6.7963
       CONSTANT HEAD =          22.7818         CONSTANT HEAD =           3.2547
       RIVER LEAKAGE =          26.3285         RIVER LEAKAGE =           3.9489
            RECHARGE =           0.0000              RECHARGE =           0.0000

           TOTAL OUT =          66.6529             TOTAL OUT =          13.9999

            IN - OUT =       5.3406E-05              IN - OUT =       6.8665E-05

 PERCENT DISCREPANCY =           0.00     PERCENT DISCREPANCY =           0.00






         TIME SUMMARY AT END OF TIME STEP    1 IN STRESS PERIOD    7
                    SECONDS     MINUTES      HOURS       DAYS        YEARS
                    -----------------------------------------------------------
   TIME STEP LENGTH  86400.      1440.0      24.000      1.0000     2.73785E-03
 STRESS PERIOD TIME  86400.      1440.0      24.000      1.0000     2.73785E-03
         TOTAL TIME 6.04800E+05  10080.      168.00      7.0000     1.91650E-02
1
1
                            STRESS PERIOD NO.    8, LENGTH =   1.000000    
                            -----------------------------------------------

                              NUMBER OF TIME STEPS =     1

                               MULTIPLIER FOR DELT =     1.000

                            INITIAL TIME STEP SIZE =   1.000000    

 REUSING NON-PARAMETER RIVER REACHES FROM LAST STRESS PERIOD

      2 RIVER REACHES

                 RECHARGE = -3.750000E-04
 
 SOLVING FOR HEAD 

 OUTPUT CONTROL FOR STRESS PERIOD    8   TIME STEP    1
    SAVE HEAD FOR ALL LAYERS

 HEAD WILL BE SAVED ON UNIT   51 AT END OF TIME STEP    1, STRESS PERIOD    8
1
  VOLUMETRIC BUDGET FOR ENTIRE MODEL AT END OF TIME STEP    1, STRESS PERIOD   8
  ------------------------------------------------------------------------------

     CUMULATIVE VOLUMES      L**3       RATES FOR THIS TIME STEP      L**3/T
     ------------------                 ------------------------

           IN:                                      IN:
           ---                                      ---
             STORAGE =          23.1466               STORAGE =          10.4936
       CONSTANT HEAD =           0.0000         CONSTANT HEAD =           0.0000
       RIVER LEAKAGE =           0.0000         RIVER LEAKAGE =           0.0000
            RECHARGE =          54.0000              RECHARGE =           0.0000

            TOTAL IN =          77.1466              TOTAL IN =          10.4936

          OUT:                                     OUT:
          ----                                     ----
             STORAGE =          17.5426               STORAGE =           0.0000
       CONSTANT HEAD =          26.0362         CONSTANT HEAD =           3.2544
       RIVER LEAKAGE =          29.8179         RIVER LEAKAGE =           3.4894
            RECHARGE =           3.7500              RECHARGE =           3.7500

           TOTAL OUT =          77.1467             TOTAL OUT =          10.4938

            IN - OUT =      -6.1035E-05              IN - OUT =      -1.1444E-04

 PERCENT DISCREPANCY =          -0.00     PERCENT DISCREPANCY =          -0.00






         TIME SUMMARY AT END OF TIME STEP    1 IN STRESS PERIOD    8
                    SECONDS     MINUTES      HOURS       DAYS        YEARS
                    -----------------------------------------------------------
   TIME STEP LENGTH  86400.      1440.0      24.000      1.0000     2.73785E-03
 STRESS PERIOD TIME  86400.      1440.0      24.000      1.0000     2.73785E-03
         TOTAL TIME 6.91200E+05  11520.      192.00      8.0000     2.19028E-02
1
1
                            STRESS PERIOD NO.    9, LENGTH =   1.000000    
                            -----------------------------------------------

                              NUMBER OF TIME STEPS =     1

                               MULTIPLIER FOR DELT =     1.000

                            INITIAL TIME STEP SIZE =   1.000000    

 REUSING NON-PARAMETER RIVER REACHES FROM LAST STRESS PERIOD

      2 RIVER REACHES

                 RECHARGE = -4.000000E-04
 
 SOLVING FOR HEAD 

 OUTPUT CONTROL FOR STRESS PERIOD    9   TIME STEP    1
    SAVE HEAD FOR ALL LAYERS

 HEAD WILL BE SAVED ON UNIT   51 AT END OF TIME STEP    1, STRESS PERIOD    9
1
  VOLUMETRIC BUDGET FOR ENTIRE MODEL AT END OF TIME STEP    1, STRESS PERIOD   9
  ------------------------------------------------------------------------------

     CUMULATIVE VOLUMES      L**3       RATES FOR THIS TIME STEP      L**3/T
     ------------------                 ------------------------

           IN:                                      IN:
           ---                                      ---
             STORAGE =          33.6167               STORAGE =          10.4701
       CONSTANT HEAD =           0.0000         CONSTANT HEAD =           0.0000
       RIVER LEAKAGE =           0.0000         RIVER LEAKAGE =           0.0000
            RECHARGE =          54.0000              RECHARGE =           0.0000

            TOTAL IN =          87.6167              TOTAL IN =          10.4701

          OUT:                                     OUT:
          ----                                     ----
             STORAGE =          17.5426               STORAGE =           0.0000
       CONSTANT HEAD =          29.2901         CONSTANT HEAD =           3.2539
       RIVER LEAKAGE =          33.0339         RIVER LEAKAGE =           3.2161
            RECHARGE =           7.7500              RECHARGE =           4.0000

           TOTAL OUT =          87.6166             TOTAL OUT =          10.4700

            IN - OUT =       9.1553E-05              IN - OUT =       1.5450E-04

 PERCENT DISCREPANCY =           0.00     PERCENT DISCREPANCY =           0.00






         TIME SUMMARY AT END OF TIME STEP    1 IN STRESS PERIOD    9
                    SECONDS     MINUTES      HOURS       DAYS        YEARS
                    -----------------------------------------------------------
   TIME STEP LENGTH  86400.      1440.0      24.000      1.0000     2.73785E-03
 STRESS PERIOD TIME  86400.      1440.0      24.000      1.0000     2.73785E-03
         TOTAL TIME 7.77600E+05  12960.      216.00      9.0000     2.46407E-02
1
1
                            STRESS PERIOD NO.   10, LENGTH =   1.000000    
                            -----------------------------------------------

                              NUMBER OF TIME STEPS =     1

                               MULTIPLIER FOR DELT =     1.000

                            INITIAL TIME STEP SIZE =   1.000000    

 REUSING NON-PARAMETER RIVER REACHES FROM LAST STRESS PERIOD

      2 RIVER REACHES

                 RECHARGE =  5.100000E-03
 
 SOLVING FOR HEAD 

 OUTPUT CONTROL FOR STRESS PERIOD   10   TIME STEP    1
    SAVE HEAD FOR ALL LAYERS

 HEAD WILL BE SAVED ON UNIT   51 AT END OF TIME STEP    1, STRESS PERIOD   10
1
  VOLUMETRIC BUDGET FOR ENTIRE MODEL AT END OF TIME STEP    1, STRESS PERIOD  10
  ------------------------------------------------------------------------------

     CUMULATIVE VOLUMES      L**3       RATES FOR THIS TIME STEP      L**3/T
     ------------------                 ------------------------

           IN:                                      IN:
           ---                                      ---
             STORAGE =          33.6167               STORAGE =           0.0000
       CONSTANT HEAD =           0.0000         CONSTANT HEAD =           0.0000
       RIVER LEAKAGE =           0.0000         RIVER LEAKAGE =           0.0000
            RECHARGE =         105.0000              RECHARGE =          51.0000

            TOTAL IN =         138.6167              TOTAL IN =          51.0000

          OUT:                                     OUT:
          ----                                     ----
             STORAGE =          60.3468               STORAGE =          42.8042
       CONSTANT HEAD =          32.5453         CONSTANT HEAD =           3.2552
       RIVER LEAKAGE =          37.9746         RIVER LEAKAGE =           4.9407
            RECHARGE =           7.7500              RECHARGE =           0.0000

           TOTAL OUT =         138.6167             TOTAL OUT =          51.0001

            IN - OUT =       1.5259E-05              IN - OUT =      -7.6294E-05

 PERCENT DISCREPANCY =           0.00     PERCENT DISCREPANCY =          -0.00






         TIME SUMMARY AT END OF TIME STEP    1 IN STRESS PERIOD   10
                    SECONDS     MINUTES      HOURS       DAYS        YEARS
                    -----------------------------------------------------------
   TIME STEP LENGTH  86400.      1440.0      24.000      1.0000     2.73785E-03
 STRESS PERIOD TIME  86400.      1440.0      24.000      1.0000     2.73785E-03
         TOTAL TIME 8.64000E+05  14400.      240.00      10.000     2.73785E-02
1
1
                            STRESS PERIOD NO.   11, LENGTH =   1.000000    
                            -----------------------------------------------

                              NUMBER OF TIME STEPS =     1

                               MULTIPLIER FOR DELT =     1.000

                            INITIAL TIME STEP SIZE =   1.000000    

 REUSING NON-PARAMETER RIVER REACHES FROM LAST STRESS PERIOD

      2 RIVER REACHES

                 RECHARGE = -1.000000E-04
 
 SOLVING FOR HEAD 

 OUTPUT CONTROL FOR STRESS PERIOD   11   TIME STEP    1
    SAVE HEAD FOR ALL LAYERS

 HEAD WILL BE SAVED ON UNIT   51 AT END OF TIME STEP    1, STRESS PERIOD   11
1
  VOLUMETRIC BUDGET FOR ENTIRE MODEL AT END OF TIME STEP    1, STRESS PERIOD  11
  ------------------------------------------------------------------------------

     CUMULATIVE VOLUMES      L**3       RATES FOR THIS TIME STEP      L**3/T
     ------------------                 ------------------------

           IN:                                      IN:
           ---                                      ---
             STORAGE =          42.0375               STORAGE =           8.4208
       CONSTANT HEAD =           0.0000         CONSTANT HEAD =           0.0000
       RIVER LEAKAGE =           0.0000         RIVER LEAKAGE =           0.0000
            RECHARGE =         105.0000              RECHARGE =           0.0000

            TOTAL IN =         147.0375              TOTAL IN =           8.4208

          OUT:                                     OUT:
          ----                                     ----
             STORAGE =          60.3581               STORAGE =       1.1337E-02
       CONSTANT HEAD =          35.8007         CONSTANT HEAD =           3.2554
       RIVER LEAKAGE =          42.1287         RIVER LEAKAGE =           4.1541
            RECHARGE =           8.7500              RECHARGE =           1.0000

           TOTAL OUT =         147.0376             TOTAL OUT =           8.4208

            IN - OUT =      -3.0518E-05              IN - OUT =      -4.5776E-05

 PERCENT DISCREPANCY =          -0.00     PERCENT DISCREPANCY =          -0.00






         TIME SUMMARY AT END OF TIME STEP    1 IN STRESS PERIOD   11
                    SECONDS     MINUTES      HOURS       DAYS        YEARS
                    -----------------------------------------------------------
   TIME STEP LENGTH  86400.      1440.0      24.000      1.0000     2.73785E-03
 STRESS PERIOD TIME  86400.      1440.0      24.000      1.0000     2.73785E-03
         TOTAL TIME 9.50400E+05  15840.      264.00      11.000     3.01164E-02
1
1
                            STRESS PERIOD NO.   12, LENGTH =   1.000000    
                            -----------------------------------------------

                              NUMBER OF TIME STEPS =     1

                               MULTIPLIER FOR DELT =     1.000

                            INITIAL TIME STEP SIZE =   1.000000    

 REUSING NON-PARAMETER RIVER REACHES FROM LAST STRESS PERIOD

      2 RIVER REACHES

                 RECHARGE =  4.700000E-03
 
 SOLVING FOR HEAD 

 OUTPUT CONTROL FOR STRESS PERIOD   12   TIME STEP    1
    SAVE HEAD FOR ALL LAYERS

 HEAD WILL BE SAVED ON UNIT   51 AT END OF TIME STEP    1, STRESS PERIOD   12
1
  VOLUMETRIC BUDGET FOR ENTIRE MODEL AT END OF TIME STEP    1, STRESS PERIOD  12
  ------------------------------------------------------------------------------

     CUMULATIVE VOLUMES      L**3       RATES FOR THIS TIME STEP      L**3/T
     ------------------                 ------------------------

           IN:                                      IN:
           ---                                      ---
             STORAGE =          42.0375               STORAGE =           0.0000
       CONSTANT HEAD =           0.0000         CONSTANT HEAD =           0.0000
       RIVER LEAKAGE =           0.0000         RIVER LEAKAGE =           0.0000
            RECHARGE =         152.0000              RECHARGE =          47.0000

            TOTAL IN =         194.0375              TOTAL IN =          47.0000

          OUT:                                     OUT:
          ----                                     ----
             STORAGE =          98.6135               STORAGE =          38.2554
       CONSTANT HEAD =          39.0578         CONSTANT HEAD =           3.2570
       RIVER LEAKAGE =          47.6162         RIVER LEAKAGE =           5.4875
            RECHARGE =           8.7500              RECHARGE =           0.0000

           TOTAL OUT =         194.0375             TOTAL OUT =          46.9999

            IN - OUT =       4.5776E-05              IN - OUT =       6.8665E-05

 PERCENT DISCREPANCY =           0.00     PERCENT DISCREPANCY =           0.00






         TIME SUMMARY AT END OF TIME STEP    1 IN STRESS PERIOD   12
                    SECONDS     MINUTES      HOURS       DAYS        YEARS
                    -----------------------------------------------------------
   TIME STEP LENGTH  86400.      1440.0      24.000      1.0000     2.73785E-03
 STRESS PERIOD TIME  86400.      1440.0      24.000      1.0000     2.73785E-03
         TOTAL TIME 1.03680E+06  17280.      288.00      12.000     3.28542E-02
1
1
                            STRESS PERIOD NO.   13, LENGTH =   1.000000    
                            -----------------------------------------------

                              NUMBER OF TIME STEPS =     1

                               MULTIPLIER FOR DELT =     1.000

                            INITIAL TIME STEP SIZE =   1.000000    

 REUSING NON-PARAMETER RIVER REACHES FROM LAST STRESS PERIOD

      2 RIVER REACHES

                 RECHARGE =  3.600000E-03
 
 SOLVING FOR HEAD 

 OUTPUT CONTROL FOR STRESS PERIOD   13   TIME STEP    1
    SAVE HEAD FOR ALL LAYERS

 HEAD WILL BE SAVED ON UNIT   51 AT END OF TIME STEP    1, STRESS PERIOD   13
1
  VOLUMETRIC BUDGET FOR ENTIRE MODEL AT END OF TIME STEP    1, STRESS PERIOD  13
  ------------------------------------------------------------------------------

     CUMULATIVE VOLUMES      L**3       RATES FOR THIS TIME STEP      L**3/T
     ------------------                 ------------------------

           IN:                                      IN:
           ---                                      ---
             STORAGE =          42.0375               STORAGE =           0.0000
       CONSTANT HEAD =           0.0000         CONSTANT HEAD =           0.0000
       RIVER LEAKAGE =           0.0000         RIVER LEAKAGE =           0.0000
            RECHARGE =         188.0000              RECHARGE =          36.0000

            TOTAL IN =         230.0375              TOTAL IN =          36.0000

          OUT:                                     OUT:
          ----                                     ----
             STORAGE =         125.4260               STORAGE =          26.8125
       CONSTANT HEAD =          42.3166         CONSTANT HEAD =           3.2589
       RIVER LEAKAGE =          53.5447         RIVER LEAKAGE =           5.9285
            RECHARGE =           8.7500              RECHARGE =           0.0000

           TOTAL OUT =         230.0373             TOTAL OUT =          35.9998

            IN - OUT =       2.2888E-04              IN - OUT =       1.8692E-04

 PERCENT DISCREPANCY =           0.00     PERCENT DISCREPANCY =           0.00






         TIME SUMMARY AT END OF TIME STEP    1 IN STRESS PERIOD   13
                    SECONDS     MINUTES      HOURS       DAYS        YEARS
                    -----------------------------------------------------------
   TIME STEP LENGTH  86400.      1440.0      24.000      1.0000     2.73785E-03
 STRESS PERIOD TIME  86400.      1440.0      24.000      1.0000     2.73785E-03
         TOTAL TIME 1.12320E+06  18720.      312.00      13.000     3.55921E-02
1
1
                            STRESS PERIOD NO.   14, LENGTH =   1.000000    
                            -----------------------------------------------

                              NUMBER OF TIME STEPS =     1

                               MULTIPLIER FOR DELT =     1.000

                            INITIAL TIME STEP SIZE =   1.000000    

 REUSING NON-PARAMETER RIVER REACHES FROM LAST STRESS PERIOD

      2 RIVER REACHES

                 RECHARGE =  2.000000E-04
 
 SOLVING FOR HEAD 

 OUTPUT CONTROL FOR STRESS PERIOD   14   TIME STEP    1
    SAVE HEAD FOR ALL LAYERS

 HEAD WILL BE SAVED ON UNIT   51 AT END OF TIME STEP    1, STRESS PERIOD   14
1
  VOLUMETRIC BUDGET FOR ENTIRE MODEL AT END OF TIME STEP    1, STRESS PERIOD  14
  ------------------------------------------------------------------------------

     CUMULATIVE VOLUMES      L**3       RATES FOR THIS TIME STEP      L**3/T
     ------------------                 ------------------------

           IN:                                      IN:
           ---                                      ---
             STORAGE =          48.4828               STORAGE =           6.4453
       CONSTANT HEAD =           0.0000         CONSTANT HEAD =           0.0000
       RIVER LEAKAGE =           0.0000         RIVER LEAKAGE =           0.0000
            RECHARGE =         190.0000              RECHARGE =           2.0000

            TOTAL IN =         238.4828              TOTAL IN =           8.4453

          OUT:                                     OUT:
          ----                                     ----
             STORAGE =         125.4720               STORAGE =       4.5943E-02
       CONSTANT HEAD =          45.5764         CONSTANT HEAD =           3.2598
       RIVER LEAKAGE =          58.6841         RIVER LEAKAGE =           5.1395
            RECHARGE =           8.7500              RECHARGE =           0.0000

           TOTAL OUT =         238.4825             TOTAL OUT =           8.4452

            IN - OUT =       3.2043E-04              IN - OUT =       1.1063E-04

 PERCENT DISCREPANCY =           0.00     PERCENT DISCREPANCY =           0.00






         TIME SUMMARY AT END OF TIME STEP    1 IN STRESS PERIOD   14
                    SECONDS     MINUTES      HOURS       DAYS        YEARS
                    -----------------------------------------------------------
   TIME STEP LENGTH  86400.      1440.0      24.000      1.0000     2.73785E-03
 STRESS PERIOD TIME  86400.      1440.0      24.000      1.0000     2.73785E-03
         TOTAL TIME 1.20960E+06  20160.      336.00      14.000     3.83299E-02
1
1
                            STRESS PERIOD NO.   15, LENGTH =   1.000000    
                            -----------------------------------------------

                              NUMBER OF TIME STEPS =     1

                               MULTIPLIER FOR DELT =     1.000

                            INITIAL TIME STEP SIZE =   1.000000    

 REUSING NON-PARAMETER RIVER REACHES FROM LAST STRESS PERIOD

      2 RIVER REACHES

                 RECHARGE =  1.400000E-02
 
 SOLVING FOR HEAD 

 OUTPUT CONTROL FOR STRESS PERIOD   15   TIME STEP    1
    SAVE HEAD FOR ALL LAYERS

 HEAD WILL BE SAVED ON UNIT   51 AT END OF TIME STEP    1, STRESS PERIOD   15
1
  VOLUMETRIC BUDGET FOR ENTIRE MODEL AT END OF TIME STEP    1, STRESS PERIOD  15
  ------------------------------------------------------------------------------

     CUMULATIVE VOLUMES      L**3       RATES FOR THIS TIME STEP      L**3/T
     ------------------                 ------------------------

           IN:                                      IN:
           ---                                      ---
             STORAGE =          48.4828               STORAGE =           0.0000
       CONSTANT HEAD =           0.0000         CONSTANT HEAD =           0.0000
       RIVER LEAKAGE =           0.0000         RIVER LEAKAGE =           0.0000
            RECHARGE =         330.0000              RECHARGE =         140.0000

            TOTAL IN =         378.4828              TOTAL IN =         140.0000

          OUT:                                     OUT:
          ----                                     ----
             STORAGE =         252.5971               STORAGE =         127.1251
       CONSTANT HEAD =          48.8415         CONSTANT HEAD =           3.2652
       RIVER LEAKAGE =          68.2937         RIVER LEAKAGE =           9.6096
            RECHARGE =           8.7500              RECHARGE =           0.0000

           TOTAL OUT =         378.4824             TOTAL OUT =         139.9999

            IN - OUT =       4.2725E-04              IN - OUT =       9.1553E-05

 PERCENT DISCREPANCY =           0.00     PERCENT DISCREPANCY =           0.00






         TIME SUMMARY AT END OF TIME STEP    1 IN STRESS PERIOD   15
                    SECONDS     MINUTES      HOURS       DAYS        YEARS
                    -----------------------------------------------------------
   TIME STEP LENGTH  86400.      1440.0      24.000      1.0000     2.73785E-03
 STRESS PERIOD TIME  86400.      1440.0      24.000      1.0000     2.73785E-03
         TOTAL TIME 1.29600E+06  21600.      360.00      15.000     4.10678E-02
1
1
                            STRESS PERIOD NO.   16, LENGTH =   1.000000    
                            -----------------------------------------------

                              NUMBER OF TIME STEPS =     1

                               MULTIPLIER FOR DELT =     1.000

                            INITIAL TIME STEP SIZE =   1.000000    

 REUSING NON-PARAMETER RIVER REACHES FROM LAST STRESS PERIOD

      2 RIVER REACHES

                 RECHARGE =  9.200000E-03
 
 SOLVING FOR HEAD 

 OUTPUT CONTROL FOR STRESS PERIOD   16   TIME STEP    1
    SAVE HEAD FOR ALL LAYERS

 HEAD WILL BE SAVED ON UNIT   51 AT END OF TIME STEP    1, STRESS PERIOD   16
1
  VOLUMETRIC BUDGET FOR ENTIRE MODEL AT END OF TIME STEP    1, STRESS PERIOD  16
  ------------------------------------------------------------------------------

     CUMULATIVE VOLUMES      L**3       RATES FOR THIS TIME STEP      L**3/T
     ------------------                 ------------------------

           IN:                                      IN:
           ---                                      ---
             STORAGE =          48.4828               STORAGE =           0.0000
       CONSTANT HEAD =           0.0000         CONSTANT HEAD =           0.0000
       RIVER LEAKAGE =           0.0000         RIVER LEAKAGE =           0.0000
            RECHARGE =         422.0000              RECHARGE =          92.0000

            TOTAL IN =         470.4828              TOTAL IN =          92.0000

          OUT:                                     OUT:
          ----                                     ----
             STORAGE =         330.6130               STORAGE =          78.0160
       CONSTANT HEAD =          52.1124         CONSTANT HEAD =           3.2709
       RIVER LEAKAGE =          79.0070         RIVER LEAKAGE =          10.7132
            RECHARGE =           8.7500              RECHARGE =           0.0000

           TOTAL OUT =         470.4824             TOTAL OUT =          92.0000

            IN - OUT =       3.9673E-04              IN - OUT =      -4.5776E-05

 PERCENT DISCREPANCY =           0.00     PERCENT DISCREPANCY =          -0.00






         TIME SUMMARY AT END OF TIME STEP    1 IN STRESS PERIOD   16
                    SECONDS     MINUTES      HOURS       DAYS        YEARS
                    -----------------------------------------------------------
   TIME STEP LENGTH  86400.      1440.0      24.000      1.0000     2.73785E-03
 STRESS PERIOD TIME  86400.      1440.0      24.000      1.0000     2.73785E-03
         TOTAL TIME 1.38240E+06  23040.      384.00      16.000     4.38056E-02
1
1
                            STRESS PERIOD NO.   17, LENGTH =   1.000000    
                            -----------------------------------------------

                              NUMBER OF TIME STEPS =     1

                               MULTIPLIER FOR DELT =     1.000

                            INITIAL TIME STEP SIZE =   1.000000    

 REUSING NON-PARAMETER RIVER REACHES FROM LAST STRESS PERIOD

      2 RIVER REACHES

                 RECHARGE =  4.900000E-03
 
 SOLVING FOR HEAD 

 OUTPUT CONTROL FOR STRESS PERIOD   17   TIME STEP    1
    SAVE HEAD FOR ALL LAYERS

 HEAD WILL BE SAVED ON UNIT   51 AT END OF TIME STEP    1, STRESS PERIOD   17
1
  VOLUMETRIC BUDGET FOR ENTIRE MODEL AT END OF TIME STEP    1, STRESS PERIOD  17
  ------------------------------------------------------------------------------

     CUMULATIVE VOLUMES      L**3       RATES FOR THIS TIME STEP      L**3/T
     ------------------                 ------------------------

           IN:                                      IN:
           ---                                      ---
             STORAGE =          48.6156               STORAGE =           0.1328
       CONSTANT HEAD =           0.0000         CONSTANT HEAD =           0.0000
       RIVER LEAKAGE =           0.0000         RIVER LEAKAGE =           0.0000
            RECHARGE =         471.0000              RECHARGE =          49.0000

            TOTAL IN =         519.6156              TOTAL IN =          49.1328

          OUT:                                     OUT:
          ----                                     ----
             STORAGE =         366.1525               STORAGE =          35.5395
       CONSTANT HEAD =          55.3882         CONSTANT HEAD =           3.2757
       RIVER LEAKAGE =          89.3243         RIVER LEAKAGE =          10.3174
            RECHARGE =           8.7500              RECHARGE =           0.0000

           TOTAL OUT =         519.6150             TOTAL OUT =          49.1326

            IN - OUT =       6.1035E-04              IN - OUT =       1.6785E-04

 PERCENT DISCREPANCY =           0.00     PERCENT DISCREPANCY =           0.00






         TIME SUMMARY AT END OF TIME STEP    1 IN STRESS PERIOD   17
                    SECONDS     MINUTES      HOURS       DAYS        YEARS
                    -----------------------------------------------------------
   TIME STEP LENGTH  86400.      1440.0      24.000      1.0000     2.73785E-03
 STRESS PERIOD TIME  86400.      1440.0      24.000      1.0000     2.73785E-03
         TOTAL TIME 1.46880E+06  24480.      408.00      17.000     4.65435E-02
1
1
                            STRESS PERIOD NO.   18, LENGTH =   1.000000    
                            -----------------------------------------------

                              NUMBER OF TIME STEPS =     1

                               MULTIPLIER FOR DELT =     1.000

                            INITIAL TIME STEP SIZE =   1.000000    

 REUSING NON-PARAMETER RIVER REACHES FROM LAST STRESS PERIOD

      2 RIVER REACHES

                 RECHARGE = -3.000000E-04
 
 SOLVING FOR HEAD 

 OUTPUT CONTROL FOR STRESS PERIOD   18   TIME STEP    1
    SAVE HEAD FOR ALL LAYERS

 HEAD WILL BE SAVED ON UNIT   51 AT END OF TIME STEP    1, STRESS PERIOD   18
1
  VOLUMETRIC BUDGET FOR ENTIRE MODEL AT END OF TIME STEP    1, STRESS PERIOD  18
  ------------------------------------------------------------------------------

     CUMULATIVE VOLUMES      L**3       RATES FOR THIS TIME STEP      L**3/T
     ------------------                 ------------------------

           IN:                                      IN:
           ---                                      ---
             STORAGE =          63.6294               STORAGE =          15.0139
       CONSTANT HEAD =           0.0000         CONSTANT HEAD =           0.0000
       RIVER LEAKAGE =           0.0000         RIVER LEAKAGE =           0.0000
            RECHARGE =         471.0000              RECHARGE =           0.0000

            TOTAL IN =         534.6295              TOTAL IN =          15.0139

          OUT:                                     OUT:
          ----                                     ----
             STORAGE =         366.3290               STORAGE =           0.1765
       CONSTANT HEAD =          58.6670         CONSTANT HEAD =           3.2788
       RIVER LEAKAGE =          97.8832         RIVER LEAKAGE =           8.5588
            RECHARGE =          11.7500              RECHARGE =           3.0000

           TOTAL OUT =         534.6292             TOTAL OUT =          15.0141

            IN - OUT =       3.0518E-04              IN - OUT =      -2.6989E-04

 PERCENT DISCREPANCY =           0.00     PERCENT DISCREPANCY =          -0.00






         TIME SUMMARY AT END OF TIME STEP    1 IN STRESS PERIOD   18
                    SECONDS     MINUTES      HOURS       DAYS        YEARS
                    -----------------------------------------------------------
   TIME STEP LENGTH  86400.      1440.0      24.000      1.0000     2.73785E-03
 STRESS PERIOD TIME  86400.      1440.0      24.000      1.0000     2.73785E-03
         TOTAL TIME 1.55520E+06  25920.      432.00      18.000     4.92813E-02
1
1
                            STRESS PERIOD NO.   19, LENGTH =   1.000000    
                            -----------------------------------------------

                              NUMBER OF TIME STEPS =     1

                               MULTIPLIER FOR DELT =     1.000

                            INITIAL TIME STEP SIZE =   1.000000    

 REUSING NON-PARAMETER RIVER REACHES FROM LAST STRESS PERIOD

      2 RIVER REACHES

                 RECHARGE = -2.750000E-04
 
 SOLVING FOR HEAD 

 OUTPUT CONTROL FOR STRESS PERIOD   19   TIME STEP    1
    SAVE HEAD FOR ALL LAYERS

 HEAD WILL BE SAVED ON UNIT   51 AT END OF TIME STEP    1, STRESS PERIOD   19
1
  VOLUMETRIC BUDGET FOR ENTIRE MODEL AT END OF TIME STEP    1, STRESS PERIOD  19
  ------------------------------------------------------------------------------

     CUMULATIVE VOLUMES      L**3       RATES FOR THIS TIME STEP      L**3/T
     ------------------                 ------------------------

           IN:                                      IN:
           ---                                      ---
             STORAGE =          77.4479               STORAGE =          13.8185
       CONSTANT HEAD =           0.0000         CONSTANT HEAD =           0.0000
       RIVER LEAKAGE =           0.0000         RIVER LEAKAGE =           0.0000
            RECHARGE =         471.0000              RECHARGE =           0.0000

            TOTAL IN =         548.4479              TOTAL IN =          13.8185

          OUT:                                     OUT:
          ----                                     ----
             STORAGE =         366.4938               STORAGE =           0.1648
       CONSTANT HEAD =          61.9481         CONSTANT HEAD =           3.2812
       RIVER LEAKAGE =         105.5058         RIVER LEAKAGE =           7.6226
            RECHARGE =          14.5000              RECHARGE =           2.7500

           TOTAL OUT =         548.4477             TOTAL OUT =          13.8186

            IN - OUT =       2.4414E-04              IN - OUT =      -6.0081E-05

 PERCENT DISCREPANCY =           0.00     PERCENT DISCREPANCY =          -0.00






         TIME SUMMARY AT END OF TIME STEP    1 IN STRESS PERIOD   19
                    SECONDS     MINUTES      HOURS       DAYS        YEARS
                    -----------------------------------------------------------
   TIME STEP LENGTH  86400.      1440.0      24.000      1.0000     2.73785E-03
 STRESS PERIOD TIME  86400.      1440.0      24.000      1.0000     2.73785E-03
         TOTAL TIME 1.64160E+06  27360.      456.00      19.000     5.20192E-02
1
1
                            STRESS PERIOD NO.   20, LENGTH =   1.000000    
                            -----------------------------------------------

                              NUMBER OF TIME STEPS =     1

                               MULTIPLIER FOR DELT =     1.000

                            INITIAL TIME STEP SIZE =   1.000000    

 REUSING NON-PARAMETER RIVER REACHES FROM LAST STRESS PERIOD

      2 RIVER REACHES

                 RECHARGE = -3.000000E-04
 
 SOLVING FOR HEAD 

 OUTPUT CONTROL FOR STRESS PERIOD   20   TIME STEP    1
    SAVE HEAD FOR ALL LAYERS

 HEAD WILL BE SAVED ON UNIT   51 AT END OF TIME STEP    1, STRESS PERIOD   20
1
  VOLUMETRIC BUDGET FOR ENTIRE MODEL AT END OF TIME STEP    1, STRESS PERIOD  20
  ------------------------------------------------------------------------------

     CUMULATIVE VOLUMES      L**3       RATES FOR THIS TIME STEP      L**3/T
     ------------------                 ------------------------

           IN:                                      IN:
           ---                                      ---
             STORAGE =          90.8616               STORAGE =          13.4136
       CONSTANT HEAD =           0.0000         CONSTANT HEAD =           0.0000
       RIVER LEAKAGE =           0.0000         RIVER LEAKAGE =           0.0000
            RECHARGE =         471.0000              RECHARGE =           0.0000

            TOTAL IN =         561.8616              TOTAL IN =          13.4136

          OUT:                                     OUT:
          ----                                     ----
             STORAGE =         366.6476               STORAGE =           0.1538
       CONSTANT HEAD =          65.2312         CONSTANT HEAD =           3.2831
       RIVER LEAKAGE =         112.4827         RIVER LEAKAGE =           6.9769
            RECHARGE =          17.5000              RECHARGE =           3.0000

           TOTAL OUT =         561.8615             TOTAL OUT =          13.4139

            IN - OUT =       6.1035E-05              IN - OUT =      -2.1553E-04

 PERCENT DISCREPANCY =           0.00     PERCENT DISCREPANCY =          -0.00






         TIME SUMMARY AT END OF TIME STEP    1 IN STRESS PERIOD   20
                    SECONDS     MINUTES      HOURS       DAYS        YEARS
                    -----------------------------------------------------------
   TIME STEP LENGTH  86400.      1440.0      24.000      1.0000     2.73785E-03
 STRESS PERIOD TIME  86400.      1440.0      24.000      1.0000     2.73785E-03
         TOTAL TIME 1.72800E+06  28800.      480.00      20.000     5.47570E-02
1
1
                            STRESS PERIOD NO.   21, LENGTH =   1.000000    
                            -----------------------------------------------

                              NUMBER OF TIME STEPS =     1

                               MULTIPLIER FOR DELT =     1.000

                            INITIAL TIME STEP SIZE =   1.000000    

 REUSING NON-PARAMETER RIVER REACHES FROM LAST STRESS PERIOD

      2 RIVER REACHES

                 RECHARGE = -1.750000E-04
 
 SOLVING FOR HEAD 

 OUTPUT CONTROL FOR STRESS PERIOD   21   TIME STEP    1
    SAVE HEAD FOR ALL LAYERS

 HEAD WILL BE SAVED ON UNIT   51 AT END OF TIME STEP    1, STRESS PERIOD   21
1
  VOLUMETRIC BUDGET FOR ENTIRE MODEL AT END OF TIME STEP    1, STRESS PERIOD  21
  ------------------------------------------------------------------------------

     CUMULATIVE VOLUMES      L**3       RATES FOR THIS TIME STEP      L**3/T
     ------------------                 ------------------------

           IN:                                      IN:
           ---                                      ---
             STORAGE =         102.5745               STORAGE =          11.7129
       CONSTANT HEAD =           0.0000         CONSTANT HEAD =           0.0000
       RIVER LEAKAGE =           0.0000         RIVER LEAKAGE =           0.0000
            RECHARGE =         471.0000              RECHARGE =           0.0000

            TOTAL IN =         573.5745              TOTAL IN =          11.7129

          OUT:                                     OUT:
          ----                                     ----
             STORAGE =         366.7918               STORAGE =           0.1443
       CONSTANT HEAD =          68.5160         CONSTANT HEAD =           3.2847
       RIVER LEAKAGE =         119.0167         RIVER LEAKAGE =           6.5339
            RECHARGE =          19.2500              RECHARGE =           1.7500

           TOTAL OUT =         573.5745             TOTAL OUT =          11.7129

            IN - OUT =           0.0000              IN - OUT =      -4.3869E-05

 PERCENT DISCREPANCY =           0.00     PERCENT DISCREPANCY =          -0.00






         TIME SUMMARY AT END OF TIME STEP    1 IN STRESS PERIOD   21
                    SECONDS     MINUTES      HOURS       DAYS        YEARS
                    -----------------------------------------------------------
   TIME STEP LENGTH  86400.      1440.0      24.000      1.0000     2.73785E-03
 STRESS PERIOD TIME  86400.      1440.0      24.000      1.0000     2.73785E-03
         TOTAL TIME 1.81440E+06  30240.      504.00      21.000     5.74949E-02
1
1
                            STRESS PERIOD NO.   22, LENGTH =   1.000000    
                            -----------------------------------------------

                              NUMBER OF TIME STEPS =     1

                               MULTIPLIER FOR DELT =     1.000

                            INITIAL TIME STEP SIZE =   1.000000    

 REUSING NON-PARAMETER RIVER REACHES FROM LAST STRESS PERIOD

      2 RIVER REACHES

                 RECHARGE = -6.000000E-04
 
 SOLVING FOR HEAD 

 OUTPUT CONTROL FOR STRESS PERIOD   22   TIME STEP    1
    SAVE HEAD FOR ALL LAYERS

 HEAD WILL BE SAVED ON UNIT   51 AT END OF TIME STEP    1, STRESS PERIOD   22
1
  VOLUMETRIC BUDGET FOR ENTIRE MODEL AT END OF TIME STEP    1, STRESS PERIOD  22
  ------------------------------------------------------------------------------

     CUMULATIVE VOLUMES      L**3       RATES FOR THIS TIME STEP      L**3/T
     ------------------                 ------------------------

           IN:                                      IN:
           ---                                      ---
             STORAGE =         118.0139               STORAGE =          15.4394
       CONSTANT HEAD =           0.0000         CONSTANT HEAD =           0.0000
       RIVER LEAKAGE =           0.0000         RIVER LEAKAGE =           0.0000
            RECHARGE =         471.0000              RECHARGE =           0.0000

            TOTAL IN =         589.0139              TOTAL IN =          15.4394

          OUT:                                     OUT:
          ----                                     ----
             STORAGE =         366.9245               STORAGE =           0.1326
       CONSTANT HEAD =          71.8019         CONSTANT HEAD =           3.2860
       RIVER LEAKAGE =         125.0374         RIVER LEAKAGE =           6.0207
            RECHARGE =          25.2500              RECHARGE =           6.0000

           TOTAL OUT =         589.0138             TOTAL OUT =          15.4394

            IN - OUT =       1.2207E-04              IN - OUT =       5.6267E-05

 PERCENT DISCREPANCY =           0.00     PERCENT DISCREPANCY =           0.00






         TIME SUMMARY AT END OF TIME STEP    1 IN STRESS PERIOD   22
                    SECONDS     MINUTES      HOURS       DAYS        YEARS
                    -----------------------------------------------------------
   TIME STEP LENGTH  86400.      1440.0      24.000      1.0000     2.73785E-03
 STRESS PERIOD TIME  86400.      1440.0      24.000      1.0000     2.73785E-03
         TOTAL TIME 1.90080E+06  31680.      528.00      22.000     6.02327E-02
1
1
                            STRESS PERIOD NO.   23, LENGTH =   1.000000    
                            -----------------------------------------------

                              NUMBER OF TIME STEPS =     1

                               MULTIPLIER FOR DELT =     1.000

                            INITIAL TIME STEP SIZE =   1.000000    

 REUSING NON-PARAMETER RIVER REACHES FROM LAST STRESS PERIOD

      2 RIVER REACHES

                 RECHARGE = -5.000000E-04
 
 SOLVING FOR HEAD 

 OUTPUT CONTROL FOR STRESS PERIOD   23   TIME STEP    1
    SAVE HEAD FOR ALL LAYERS

 HEAD WILL BE SAVED ON UNIT   51 AT END OF TIME STEP    1, STRESS PERIOD   23
1
  VOLUMETRIC BUDGET FOR ENTIRE MODEL AT END OF TIME STEP    1, STRESS PERIOD  23
  ------------------------------------------------------------------------------

     CUMULATIVE VOLUMES      L**3       RATES FOR THIS TIME STEP      L**3/T
     ------------------                 ------------------------

           IN:                                      IN:
           ---                                      ---
             STORAGE =         132.0799               STORAGE =          14.0660
       CONSTANT HEAD =           0.0000         CONSTANT HEAD =           0.0000
       RIVER LEAKAGE =           0.0000         RIVER LEAKAGE =           0.0000
            RECHARGE =         471.0000              RECHARGE =           0.0000

            TOTAL IN =         603.0799              TOTAL IN =          14.0660

          OUT:                                     OUT:
          ----                                     ----
             STORAGE =         367.0466               STORAGE =           0.1222
       CONSTANT HEAD =          75.0889         CONSTANT HEAD =           3.2870
       RIVER LEAKAGE =         130.6941         RIVER LEAKAGE =           5.6567
            RECHARGE =          30.2500              RECHARGE =           5.0000

           TOTAL OUT =         603.0797             TOTAL OUT =          14.0659

            IN - OUT =       1.8311E-04              IN - OUT =       1.1158E-04

 PERCENT DISCREPANCY =           0.00     PERCENT DISCREPANCY =           0.00






         TIME SUMMARY AT END OF TIME STEP    1 IN STRESS PERIOD   23
                    SECONDS     MINUTES      HOURS       DAYS        YEARS
                    -----------------------------------------------------------
   TIME STEP LENGTH  86400.      1440.0      24.000      1.0000     2.73785E-03
 STRESS PERIOD TIME  86400.      1440.0      24.000      1.0000     2.73785E-03
         TOTAL TIME 1.98720E+06  33120.      552.00      23.000     6.29706E-02
1
1
                            STRESS PERIOD NO.   24, LENGTH =   1.000000    
                            -----------------------------------------------

                              NUMBER OF TIME STEPS =     1

                               MULTIPLIER FOR DELT =     1.000

                            INITIAL TIME STEP SIZE =   1.000000    

 REUSING NON-PARAMETER RIVER REACHES FROM LAST STRESS PERIOD

      2 RIVER REACHES

                 RECHARGE = -5.000000E-04
 
 SOLVING FOR HEAD 

 OUTPUT CONTROL FOR STRESS PERIOD   24   TIME STEP    1
    SAVE HEAD FOR ALL LAYERS

 HEAD WILL BE SAVED ON UNIT   51 AT END OF TIME STEP    1, STRESS PERIOD   24
1
  VOLUMETRIC BUDGET FOR ENTIRE MODEL AT END OF TIME STEP    1, STRESS PERIOD  24
  ------------------------------------------------------------------------------

     CUMULATIVE VOLUMES      L**3       RATES FOR THIS TIME STEP      L**3/T
     ------------------                 ------------------------

           IN:                                      IN:
           ---                                      ---
             STORAGE =         145.8229               STORAGE =          13.7430
       CONSTANT HEAD =           0.0000         CONSTANT HEAD =           0.0000
       RIVER LEAKAGE =           0.0000         RIVER LEAKAGE =           0.0000
            RECHARGE =         471.0000              RECHARGE =           0.0000

            TOTAL IN =         616.8229              TOTAL IN =          13.7430

          OUT:                                     OUT:
          ----                                     ----
             STORAGE =         367.1588               STORAGE =           0.1121
       CONSTANT HEAD =          78.3767         CONSTANT HEAD =           3.2878
       RIVER LEAKAGE =         136.0371         RIVER LEAKAGE =           5.3430
            RECHARGE =          35.2500              RECHARGE =           5.0000

           TOTAL OUT =         616.8226             TOTAL OUT =          13.7429

            IN - OUT =       3.0518E-04              IN - OUT =       1.2970E-04

 PERCENT DISCREPANCY =           0.00     PERCENT DISCREPANCY =           0.00






         TIME SUMMARY AT END OF TIME STEP    1 IN STRESS PERIOD   24
                    SECONDS     MINUTES      HOURS       DAYS        YEARS
                    -----------------------------------------------------------
   TIME STEP LENGTH  86400.      1440.0      24.000      1.0000     2.73785E-03
 STRESS PERIOD TIME  86400.      1440.0      24.000      1.0000     2.73785E-03
         TOTAL TIME 2.07360E+06  34560.      576.00      24.000     6.57084E-02
1
1
                            STRESS PERIOD NO.   25, LENGTH =   1.000000    
                            -----------------------------------------------

                              NUMBER OF TIME STEPS =     1

                               MULTIPLIER FOR DELT =     1.000

                            INITIAL TIME STEP SIZE =   1.000000    

 REUSING NON-PARAMETER RIVER REACHES FROM LAST STRESS PERIOD

      2 RIVER REACHES

                 RECHARGE = -6.000000E-04
 
 SOLVING FOR HEAD 

 OUTPUT CONTROL FOR STRESS PERIOD   25   TIME STEP    1
    SAVE HEAD FOR ALL LAYERS

 HEAD WILL BE SAVED ON UNIT   51 AT END OF TIME STEP    1, STRESS PERIOD   25
1
  VOLUMETRIC BUDGET FOR ENTIRE MODEL AT END OF TIME STEP    1, STRESS PERIOD  25
  ------------------------------------------------------------------------------

     CUMULATIVE VOLUMES      L**3       RATES FOR THIS TIME STEP      L**3/T
     ------------------                 ------------------------

           IN:                                      IN:
           ---                                      ---
             STORAGE =         160.2459               STORAGE =          14.4230
       CONSTANT HEAD =           0.0000         CONSTANT HEAD =           0.0000
       RIVER LEAKAGE =           0.0000         RIVER LEAKAGE =           0.0000
            RECHARGE =         471.0000              RECHARGE =           0.0000

            TOTAL IN =         631.2460              TOTAL IN =          14.4230

          OUT:                                     OUT:
          ----                                     ----
             STORAGE =         367.2606               STORAGE =           0.1019
       CONSTANT HEAD =          81.6651         CONSTANT HEAD =           3.2884
       RIVER LEAKAGE =         141.0698         RIVER LEAKAGE =           5.0327
            RECHARGE =          41.2500              RECHARGE =           6.0000

           TOTAL OUT =         631.2455             TOTAL OUT =          14.4230

            IN - OUT =       4.2725E-04              IN - OUT =       5.3406E-05

 PERCENT DISCREPANCY =           0.00     PERCENT DISCREPANCY =           0.00






         TIME SUMMARY AT END OF TIME STEP    1 IN STRESS PERIOD   25
                    SECONDS     MINUTES      HOURS       DAYS        YEARS
                    -----------------------------------------------------------
   TIME STEP LENGTH  86400.      1440.0      24.000      1.0000     2.73785E-03
 STRESS PERIOD TIME  86400.      1440.0      24.000      1.0000     2.73785E-03
         TOTAL TIME 2.16000E+06  36000.      600.00      25.000     6.84463E-02
1
1
                            STRESS PERIOD NO.   26, LENGTH =   1.000000    
                            -----------------------------------------------

                              NUMBER OF TIME STEPS =     1

                               MULTIPLIER FOR DELT =     1.000

                            INITIAL TIME STEP SIZE =   1.000000    

 REUSING NON-PARAMETER RIVER REACHES FROM LAST STRESS PERIOD

      2 RIVER REACHES

                 RECHARGE = -1.750000E-04
 
 SOLVING FOR HEAD 

 OUTPUT CONTROL FOR STRESS PERIOD   26   TIME STEP    1
    SAVE HEAD FOR ALL LAYERS

 HEAD WILL BE SAVED ON UNIT   51 AT END OF TIME STEP    1, STRESS PERIOD   26
1
  VOLUMETRIC BUDGET FOR ENTIRE MODEL AT END OF TIME STEP    1, STRESS PERIOD  26
  ------------------------------------------------------------------------------

     CUMULATIVE VOLUMES      L**3       RATES FOR THIS TIME STEP      L**3/T
     ------------------                 ------------------------

           IN:                                      IN:
           ---                                      ---
             STORAGE =         170.2940               STORAGE =          10.0481
       CONSTANT HEAD =           0.0000         CONSTANT HEAD =           0.0000
       RIVER LEAKAGE =           0.0000         RIVER LEAKAGE =           0.0000
            RECHARGE =         471.0000              RECHARGE =           0.0000

            TOTAL IN =         641.2941              TOTAL IN =          10.0481

          OUT:                                     OUT:
          ----                                     ----
             STORAGE =         367.3551               STORAGE =       9.4516E-02
       CONSTANT HEAD =          84.9541         CONSTANT HEAD =           3.2890
       RIVER LEAKAGE =         145.9845         RIVER LEAKAGE =           4.9146
            RECHARGE =          43.0000              RECHARGE =           1.7500

           TOTAL OUT =         641.2937             TOTAL OUT =          10.0481

            IN - OUT =       3.6621E-04              IN - OUT =      -2.9564E-05

 PERCENT DISCREPANCY =           0.00     PERCENT DISCREPANCY =          -0.00






         TIME SUMMARY AT END OF TIME STEP    1 IN STRESS PERIOD   26
                    SECONDS     MINUTES      HOURS       DAYS        YEARS
                    -----------------------------------------------------------
   TIME STEP LENGTH  86400.      1440.0      24.000      1.0000     2.73785E-03
 STRESS PERIOD TIME  86400.      1440.0      24.000      1.0000     2.73785E-03
         TOTAL TIME 2.24640E+06  37440.      624.00      26.000     7.11841E-02
1
1
                            STRESS PERIOD NO.   27, LENGTH =   1.000000    
                            -----------------------------------------------

                              NUMBER OF TIME STEPS =     1

                               MULTIPLIER FOR DELT =     1.000

                            INITIAL TIME STEP SIZE =   1.000000    

 REUSING NON-PARAMETER RIVER REACHES FROM LAST STRESS PERIOD

      2 RIVER REACHES

                 RECHARGE =  1.000000E-04
 
 SOLVING FOR HEAD 

 OUTPUT CONTROL FOR STRESS PERIOD   27   TIME STEP    1
    SAVE HEAD FOR ALL LAYERS

 HEAD WILL BE SAVED ON UNIT   51 AT END OF TIME STEP    1, STRESS PERIOD   27
1
  VOLUMETRIC BUDGET FOR ENTIRE MODEL AT END OF TIME STEP    1, STRESS PERIOD  27
  ------------------------------------------------------------------------------

     CUMULATIVE VOLUMES      L**3       RATES FOR THIS TIME STEP      L**3/T
     ------------------                 ------------------------

           IN:                                      IN:
           ---                                      ---
             STORAGE =         177.5383               STORAGE =           7.2443
       CONSTANT HEAD =           0.0000         CONSTANT HEAD =           0.0000
       RIVER LEAKAGE =           0.0000         RIVER LEAKAGE =           0.0000
            RECHARGE =         472.0000              RECHARGE =           1.0000

            TOTAL IN =         649.5383              TOTAL IN =           8.2443

          OUT:                                     OUT:
          ----                                     ----
             STORAGE =         367.4442               STORAGE =       8.9050E-02
       CONSTANT HEAD =          88.2436         CONSTANT HEAD =           3.2895
       RIVER LEAKAGE =         150.8501         RIVER LEAKAGE =           4.8656
            RECHARGE =          43.0000              RECHARGE =           0.0000

           TOTAL OUT =         649.5379             TOTAL OUT =           8.2442

            IN - OUT =       4.2725E-04              IN - OUT =       5.3406E-05

 PERCENT DISCREPANCY =           0.00     PERCENT DISCREPANCY =           0.00






         TIME SUMMARY AT END OF TIME STEP    1 IN STRESS PERIOD   27
                    SECONDS     MINUTES      HOURS       DAYS        YEARS
                    -----------------------------------------------------------
   TIME STEP LENGTH  86400.      1440.0      24.000      1.0000     2.73785E-03
 STRESS PERIOD TIME  86400.      1440.0      24.000      1.0000     2.73785E-03
         TOTAL TIME 2.33280E+06  38880.      648.00      27.000     7.39220E-02
1
1
                            STRESS PERIOD NO.   28, LENGTH =   1.000000    
                            -----------------------------------------------

                              NUMBER OF TIME STEPS =     1

                               MULTIPLIER FOR DELT =     1.000

                            INITIAL TIME STEP SIZE =   1.000000    

 REUSING NON-PARAMETER RIVER REACHES FROM LAST STRESS PERIOD

      2 RIVER REACHES

                 RECHARGE = -2.000000E-04
 
 SOLVING FOR HEAD 

 OUTPUT CONTROL FOR STRESS PERIOD   28   TIME STEP    1
    SAVE HEAD FOR ALL LAYERS

 HEAD WILL BE SAVED ON UNIT   51 AT END OF TIME STEP    1, STRESS PERIOD   28
1
  VOLUMETRIC BUDGET FOR ENTIRE MODEL AT END OF TIME STEP    1, STRESS PERIOD  28
  ------------------------------------------------------------------------------

     CUMULATIVE VOLUMES      L**3       RATES FOR THIS TIME STEP      L**3/T
     ------------------                 ------------------------

           IN:                                      IN:
           ---                                      ---
             STORAGE =         187.5860               STORAGE =          10.0477
       CONSTANT HEAD =           0.0000         CONSTANT HEAD =           0.0000
       RIVER LEAKAGE =           0.0000         RIVER LEAKAGE =           0.0000
            RECHARGE =         472.0000              RECHARGE =           0.0000

            TOTAL IN =         659.5860              TOTAL IN =          10.0477

          OUT:                                     OUT:
          ----                                     ----
             STORAGE =         367.5260               STORAGE =       8.1861E-02
       CONSTANT HEAD =          91.5336         CONSTANT HEAD =           3.2900
       RIVER LEAKAGE =         155.5260         RIVER LEAKAGE =           4.6759
            RECHARGE =          45.0000              RECHARGE =           2.0000

           TOTAL OUT =         659.5857             TOTAL OUT =          10.0477

            IN - OUT =       3.0518E-04              IN - OUT =      -9.3460E-05

 PERCENT DISCREPANCY =           0.00     PERCENT DISCREPANCY =          -0.00






         TIME SUMMARY AT END OF TIME STEP    1 IN STRESS PERIOD   28
                    SECONDS     MINUTES      HOURS       DAYS        YEARS
                    -----------------------------------------------------------
   TIME STEP LENGTH  86400.      1440.0      24.000      1.0000     2.73785E-03
 STRESS PERIOD TIME  86400.      1440.0      24.000      1.0000     2.73785E-03
         TOTAL TIME 2.41920E+06  40320.      672.00      28.000     7.66598E-02
1
1
                            STRESS PERIOD NO.   29, LENGTH =   1.000000    
                            -----------------------------------------------

                              NUMBER OF TIME STEPS =     1

                               MULTIPLIER FOR DELT =     1.000

                            INITIAL TIME STEP SIZE =   1.000000    

 REUSING NON-PARAMETER RIVER REACHES FROM LAST STRESS PERIOD

      2 RIVER REACHES

                 RECHARGE = -5.000000E-04
 
 SOLVING FOR HEAD 

 OUTPUT CONTROL FOR STRESS PERIOD   29   TIME STEP    1
    SAVE HEAD FOR ALL LAYERS

 HEAD WILL BE SAVED ON UNIT   51 AT END OF TIME STEP    1, STRESS PERIOD   29
1
  VOLUMETRIC BUDGET FOR ENTIRE MODEL AT END OF TIME STEP    1, STRESS PERIOD  29
  ------------------------------------------------------------------------------

     CUMULATIVE VOLUMES      L**3       RATES FOR THIS TIME STEP      L**3/T
     ------------------                 ------------------------

           IN:                                      IN:
           ---                                      ---
             STORAGE =         200.3624               STORAGE =          12.7765
       CONSTANT HEAD =           0.0000         CONSTANT HEAD =           0.0000
       RIVER LEAKAGE =           0.0000         RIVER LEAKAGE =           0.0000
            RECHARGE =         472.0000              RECHARGE =           0.0000

            TOTAL IN =         672.3624              TOTAL IN =          12.7765

          OUT:                                     OUT:
          ----                                     ----
             STORAGE =         367.5992               STORAGE =       7.3116E-02
       CONSTANT HEAD =          94.8237         CONSTANT HEAD =           3.2902
       RIVER LEAKAGE =         159.9391         RIVER LEAKAGE =           4.4130
            RECHARGE =          50.0000              RECHARGE =           5.0000

           TOTAL OUT =         672.3620             TOTAL OUT =          12.7763

            IN - OUT =       4.2725E-04              IN - OUT =       1.3351E-04

 PERCENT DISCREPANCY =           0.00     PERCENT DISCREPANCY =           0.00






         TIME SUMMARY AT END OF TIME STEP    1 IN STRESS PERIOD   29
                    SECONDS     MINUTES      HOURS       DAYS        YEARS
                    -----------------------------------------------------------
   TIME STEP LENGTH  86400.      1440.0      24.000      1.0000     2.73785E-03
 STRESS PERIOD TIME  86400.      1440.0      24.000      1.0000     2.73785E-03
         TOTAL TIME 2.50560E+06  41760.      696.00      29.000     7.93977E-02
1
1
                            STRESS PERIOD NO.   30, LENGTH =   1.000000    
                            -----------------------------------------------

                              NUMBER OF TIME STEPS =     1

                               MULTIPLIER FOR DELT =     1.000

                            INITIAL TIME STEP SIZE =   1.000000    

 REUSING NON-PARAMETER RIVER REACHES FROM LAST STRESS PERIOD

      2 RIVER REACHES

                 RECHARGE = -5.000000E-04
 
 SOLVING FOR HEAD 

 OUTPUT CONTROL FOR STRESS PERIOD   30   TIME STEP    1
    SAVE HEAD FOR ALL LAYERS

 HEAD WILL BE SAVED ON UNIT   51 AT END OF TIME STEP    1, STRESS PERIOD   30
1
  VOLUMETRIC BUDGET FOR ENTIRE MODEL AT END OF TIME STEP    1, STRESS PERIOD  30
  ------------------------------------------------------------------------------

     CUMULATIVE VOLUMES      L**3       RATES FOR THIS TIME STEP      L**3/T
     ------------------                 ------------------------

           IN:                                      IN:
           ---                                      ---
             STORAGE =         212.9217               STORAGE =          12.5593
       CONSTANT HEAD =           0.0000         CONSTANT HEAD =           0.0000
       RIVER LEAKAGE =           0.0000         RIVER LEAKAGE =           0.0000
            RECHARGE =         472.0000              RECHARGE =           0.0000

            TOTAL IN =         684.9217              TOTAL IN =          12.5593

          OUT:                                     OUT:
          ----                                     ----
             STORAGE =         367.6638               STORAGE =       6.4615E-02
       CONSTANT HEAD =          98.1140         CONSTANT HEAD =           3.2902
       RIVER LEAKAGE =         164.1434         RIVER LEAKAGE =           4.2043
            RECHARGE =          55.0000              RECHARGE =           5.0000

           TOTAL OUT =         684.9211             TOTAL OUT =          12.5592

            IN - OUT =       5.4932E-04              IN - OUT =       1.0872E-04

 PERCENT DISCREPANCY =           0.00     PERCENT DISCREPANCY =           0.00






         TIME SUMMARY AT END OF TIME STEP    1 IN STRESS PERIOD   30
                    SECONDS     MINUTES      HOURS       DAYS        YEARS
                    -----------------------------------------------------------
   TIME STEP LENGTH  86400.      1440.0      24.000      1.0000     2.73785E-03
 STRESS PERIOD TIME  86400.      1440.0      24.000      1.0000     2.73785E-03
         TOTAL TIME 2.59200E+06  43200.      720.00      30.000     8.21355E-02
1
1
                            STRESS PERIOD NO.   31, LENGTH =   1.000000    
                            -----------------------------------------------

                              NUMBER OF TIME STEPS =     1

                               MULTIPLIER FOR DELT =     1.000

                            INITIAL TIME STEP SIZE =   1.000000    

 REUSING NON-PARAMETER RIVER REACHES FROM LAST STRESS PERIOD

      2 RIVER REACHES

                 RECHARGE = -3.750000E-04
 
 SOLVING FOR HEAD 

 OUTPUT CONTROL FOR STRESS PERIOD   31   TIME STEP    1
    SAVE HEAD FOR ALL LAYERS

 HEAD WILL BE SAVED ON UNIT   51 AT END OF TIME STEP    1, STRESS PERIOD   31
1
  VOLUMETRIC BUDGET FOR ENTIRE MODEL AT END OF TIME STEP    1, STRESS PERIOD  31
  ------------------------------------------------------------------------------

     CUMULATIVE VOLUMES      L**3       RATES FOR THIS TIME STEP      L**3/T
     ------------------                 ------------------------

           IN:                                      IN:
           ---                                      ---
             STORAGE =         224.0835               STORAGE =          11.1617
       CONSTANT HEAD =           0.0000         CONSTANT HEAD =           0.0000
       RIVER LEAKAGE =           0.0000         RIVER LEAKAGE =           0.0000
            RECHARGE =         472.0000              RECHARGE =           0.0000

            TOTAL IN =         696.0834              TOTAL IN =          11.1617

          OUT:                                     OUT:
          ----                                     ----
             STORAGE =         367.7209               STORAGE =       5.7125E-02
       CONSTANT HEAD =         101.4042         CONSTANT HEAD =           3.2902
       RIVER LEAKAGE =         168.2079         RIVER LEAKAGE =           4.0645
            RECHARGE =          58.7500              RECHARGE =           3.7500

           TOTAL OUT =         696.0829             TOTAL OUT =          11.1618

            IN - OUT =       4.8828E-04              IN - OUT =      -9.9182E-05

 PERCENT DISCREPANCY =           0.00     PERCENT DISCREPANCY =          -0.00






         TIME SUMMARY AT END OF TIME STEP    1 IN STRESS PERIOD   31
                    SECONDS     MINUTES      HOURS       DAYS        YEARS
                    -----------------------------------------------------------
   TIME STEP LENGTH  86400.      1440.0      24.000      1.0000     2.73785E-03
 STRESS PERIOD TIME  86400.      1440.0      24.000      1.0000     2.73785E-03
         TOTAL TIME 2.67840E+06  44640.      744.00      31.000     8.48734E-02
1
1
                            STRESS PERIOD NO.   32, LENGTH =   1.000000    
                            -----------------------------------------------

                              NUMBER OF TIME STEPS =     1

                               MULTIPLIER FOR DELT =     1.000

                            INITIAL TIME STEP SIZE =   1.000000    

 REUSING NON-PARAMETER RIVER REACHES FROM LAST STRESS PERIOD

      2 RIVER REACHES

                 RECHARGE =  3.400000E-03
 
 SOLVING FOR HEAD 

 OUTPUT CONTROL FOR STRESS PERIOD   32   TIME STEP    1
    SAVE HEAD FOR ALL LAYERS

 HEAD WILL BE SAVED ON UNIT   51 AT END OF TIME STEP    1, STRESS PERIOD   32
1
  VOLUMETRIC BUDGET FOR ENTIRE MODEL AT END OF TIME STEP    1, STRESS PERIOD  32
  ------------------------------------------------------------------------------

     CUMULATIVE VOLUMES      L**3       RATES FOR THIS TIME STEP      L**3/T
     ------------------                 ------------------------

           IN:                                      IN:
           ---                                      ---
             STORAGE =         224.0835               STORAGE =           0.0000
       CONSTANT HEAD =           0.0000         CONSTANT HEAD =           0.0000
       RIVER LEAKAGE =           0.0000         RIVER LEAKAGE =           0.0000
            RECHARGE =         506.0000              RECHARGE =          34.0000

            TOTAL IN =         730.0834              TOTAL IN =          34.0000

          OUT:                                     OUT:
          ----                                     ----
             STORAGE =         393.1798               STORAGE =          25.4589
       CONSTANT HEAD =         104.6957         CONSTANT HEAD =           3.2915
       RIVER LEAKAGE =         173.4574         RIVER LEAKAGE =           5.2496
            RECHARGE =          58.7500              RECHARGE =           0.0000

           TOTAL OUT =         730.0828             TOTAL OUT =          33.9999

            IN - OUT =       6.1035E-04              IN - OUT =       8.3923E-05

 PERCENT DISCREPANCY =           0.00     PERCENT DISCREPANCY =           0.00






         TIME SUMMARY AT END OF TIME STEP    1 IN STRESS PERIOD   32
                    SECONDS     MINUTES      HOURS       DAYS        YEARS
                    -----------------------------------------------------------
   TIME STEP LENGTH  86400.      1440.0      24.000      1.0000     2.73785E-03
 STRESS PERIOD TIME  86400.      1440.0      24.000      1.0000     2.73785E-03
         TOTAL TIME 2.76480E+06  46080.      768.00      32.000     8.76112E-02
1
1
                            STRESS PERIOD NO.   33, LENGTH =   1.000000    
                            -----------------------------------------------

                              NUMBER OF TIME STEPS =     1

                               MULTIPLIER FOR DELT =     1.000

                            INITIAL TIME STEP SIZE =   1.000000    

 REUSING NON-PARAMETER RIVER REACHES FROM LAST STRESS PERIOD

      2 RIVER REACHES

                 RECHARGE =  6.400000E-03
 
 SOLVING FOR HEAD 

 OUTPUT CONTROL FOR STRESS PERIOD   33   TIME STEP    1
    SAVE HEAD FOR ALL LAYERS

 HEAD WILL BE SAVED ON UNIT   51 AT END OF TIME STEP    1, STRESS PERIOD   33
1
  VOLUMETRIC BUDGET FOR ENTIRE MODEL AT END OF TIME STEP    1, STRESS PERIOD  33
  ------------------------------------------------------------------------------

     CUMULATIVE VOLUMES      L**3       RATES FOR THIS TIME STEP      L**3/T
     ------------------                 ------------------------

           IN:                                      IN:
           ---                                      ---
             STORAGE =         224.0835               STORAGE =           0.0000
       CONSTANT HEAD =           0.0000         CONSTANT HEAD =           0.0000
       RIVER LEAKAGE =           0.0000         RIVER LEAKAGE =           0.0000
            RECHARGE =         570.0000              RECHARGE =          64.0000

            TOTAL IN =         794.0834              TOTAL IN =          64.0000

          OUT:                                     OUT:
          ----                                     ----
             STORAGE =         446.8859               STORAGE =          53.7061
       CONSTANT HEAD =         107.9899         CONSTANT HEAD =           3.2942
       RIVER LEAKAGE =         180.4572         RIVER LEAKAGE =           6.9998
            RECHARGE =          58.7500              RECHARGE =           0.0000

           TOTAL OUT =         794.0830             TOTAL OUT =          64.0001

            IN - OUT =       4.2725E-04              IN - OUT =      -1.2589E-04

 PERCENT DISCREPANCY =           0.00     PERCENT DISCREPANCY =          -0.00






         TIME SUMMARY AT END OF TIME STEP    1 IN STRESS PERIOD   33
                    SECONDS     MINUTES      HOURS       DAYS        YEARS
                    -----------------------------------------------------------
   TIME STEP LENGTH  86400.      1440.0      24.000      1.0000     2.73785E-03
 STRESS PERIOD TIME  86400.      1440.0      24.000      1.0000     2.73785E-03
         TOTAL TIME 2.85120E+06  47520.      792.00      33.000     9.03491E-02
1
1
                            STRESS PERIOD NO.   34, LENGTH =   1.000000    
                            -----------------------------------------------

                              NUMBER OF TIME STEPS =     1

                               MULTIPLIER FOR DELT =     1.000

                            INITIAL TIME STEP SIZE =   1.000000    

 REUSING NON-PARAMETER RIVER REACHES FROM LAST STRESS PERIOD

      2 RIVER REACHES

                 RECHARGE = -3.000000E-04
 
 SOLVING FOR HEAD 

 OUTPUT CONTROL FOR STRESS PERIOD   34   TIME STEP    1
    SAVE HEAD FOR ALL LAYERS

 HEAD WILL BE SAVED ON UNIT   51 AT END OF TIME STEP    1, STRESS PERIOD   34
1
  VOLUMETRIC BUDGET FOR ENTIRE MODEL AT END OF TIME STEP    1, STRESS PERIOD  34
  ------------------------------------------------------------------------------

     CUMULATIVE VOLUMES      L**3       RATES FOR THIS TIME STEP      L**3/T
     ------------------                 ------------------------

           IN:                                      IN:
           ---                                      ---
             STORAGE =         236.2960               STORAGE =          12.2125
       CONSTANT HEAD =           0.0000         CONSTANT HEAD =           0.0000
       RIVER LEAKAGE =           0.0000         RIVER LEAKAGE =           0.0000
            RECHARGE =         570.0000              RECHARGE =           0.0000

            TOTAL IN =         806.2960              TOTAL IN =          12.2125

          OUT:                                     OUT:
          ----                                     ----
             STORAGE =         446.9821               STORAGE =       9.6240E-02
       CONSTANT HEAD =         111.2853         CONSTANT HEAD =           3.2955
       RIVER LEAKAGE =         186.2783         RIVER LEAKAGE =           5.8210
            RECHARGE =          61.7500              RECHARGE =           3.0000

           TOTAL OUT =         806.2958             TOTAL OUT =          12.2127

            IN - OUT =       2.4414E-04              IN - OUT =      -2.1267E-04

 PERCENT DISCREPANCY =           0.00     PERCENT DISCREPANCY =          -0.00






         TIME SUMMARY AT END OF TIME STEP    1 IN STRESS PERIOD   34
                    SECONDS     MINUTES      HOURS       DAYS        YEARS
                    -----------------------------------------------------------
   TIME STEP LENGTH  86400.      1440.0      24.000      1.0000     2.73785E-03
 STRESS PERIOD TIME  86400.      1440.0      24.000      1.0000     2.73785E-03
         TOTAL TIME 2.93760E+06  48960.      816.00      34.000     9.30869E-02
1
1
                            STRESS PERIOD NO.   35, LENGTH =   1.000000    
                            -----------------------------------------------

                              NUMBER OF TIME STEPS =     1

                               MULTIPLIER FOR DELT =     1.000

                            INITIAL TIME STEP SIZE =   1.000000    

 REUSING NON-PARAMETER RIVER REACHES FROM LAST STRESS PERIOD

      2 RIVER REACHES

                 RECHARGE =  9.000000E-04
 
 SOLVING FOR HEAD 

 OUTPUT CONTROL FOR STRESS PERIOD   35   TIME STEP    1
    SAVE HEAD FOR ALL LAYERS

 HEAD WILL BE SAVED ON UNIT   51 AT END OF TIME STEP    1, STRESS PERIOD   35
1
  VOLUMETRIC BUDGET FOR ENTIRE MODEL AT END OF TIME STEP    1, STRESS PERIOD  35
  ------------------------------------------------------------------------------

     CUMULATIVE VOLUMES      L**3       RATES FOR THIS TIME STEP      L**3/T
     ------------------                 ------------------------

           IN:                                      IN:
           ---                                      ---
             STORAGE =         236.9005               STORAGE =           0.6046
       CONSTANT HEAD =           0.0000         CONSTANT HEAD =           0.0000
       RIVER LEAKAGE =           0.0000         RIVER LEAKAGE =           0.0000
            RECHARGE =         579.0000              RECHARGE =           9.0000

            TOTAL IN =         815.9005              TOTAL IN =           9.6046

          OUT:                                     OUT:
          ----                                     ----
             STORAGE =         447.5857               STORAGE =           0.6036
       CONSTANT HEAD =         114.5820         CONSTANT HEAD =           3.2967
       RIVER LEAKAGE =         191.9824         RIVER LEAKAGE =           5.7041
            RECHARGE =          61.7500              RECHARGE =           0.0000

           TOTAL OUT =         815.9002             TOTAL OUT =           9.6044

            IN - OUT =       3.0518E-04              IN - OUT =       1.4114E-04

 PERCENT DISCREPANCY =           0.00     PERCENT DISCREPANCY =           0.00






         TIME SUMMARY AT END OF TIME STEP    1 IN STRESS PERIOD   35
                    SECONDS     MINUTES      HOURS       DAYS        YEARS
                    -----------------------------------------------------------
   TIME STEP LENGTH  86400.      1440.0      24.000      1.0000     2.73785E-03
 STRESS PERIOD TIME  86400.      1440.0      24.000      1.0000     2.73785E-03
         TOTAL TIME 3.02400E+06  50400.      840.00      35.000     9.58248E-02
1
1
                            STRESS PERIOD NO.   36, LENGTH =   1.000000    
                            -----------------------------------------------

                              NUMBER OF TIME STEPS =     1

                               MULTIPLIER FOR DELT =     1.000

                            INITIAL TIME STEP SIZE =   1.000000    

 REUSING NON-PARAMETER RIVER REACHES FROM LAST STRESS PERIOD

      2 RIVER REACHES

                 RECHARGE =  3.000000E-04
 
 SOLVING FOR HEAD 

 OUTPUT CONTROL FOR STRESS PERIOD   36   TIME STEP    1
    SAVE HEAD FOR ALL LAYERS

 HEAD WILL BE SAVED ON UNIT   51 AT END OF TIME STEP    1, STRESS PERIOD   36
1
  VOLUMETRIC BUDGET FOR ENTIRE MODEL AT END OF TIME STEP    1, STRESS PERIOD  36
  ------------------------------------------------------------------------------

     CUMULATIVE VOLUMES      L**3       RATES FOR THIS TIME STEP      L**3/T
     ------------------                 ------------------------

           IN:                                      IN:
           ---                                      ---
             STORAGE =         242.6972               STORAGE =           5.7967
       CONSTANT HEAD =           0.0000         CONSTANT HEAD =           0.0000
       RIVER LEAKAGE =           0.0000         RIVER LEAKAGE =           0.0000
            RECHARGE =         582.0000              RECHARGE =           3.0000

            TOTAL IN =         824.6972              TOTAL IN =           8.7967

          OUT:                                     OUT:
          ----                                     ----
             STORAGE =         447.6757               STORAGE =       8.9975E-02
       CONSTANT HEAD =         117.8797         CONSTANT HEAD =           3.2977
       RIVER LEAKAGE =         197.3912         RIVER LEAKAGE =           5.4088
            RECHARGE =          61.7500              RECHARGE =           0.0000

           TOTAL OUT =         824.6967             TOTAL OUT =           8.7964

            IN - OUT =       5.4932E-04              IN - OUT =       2.2125E-04

 PERCENT DISCREPANCY =           0.00     PERCENT DISCREPANCY =           0.00






         TIME SUMMARY AT END OF TIME STEP    1 IN STRESS PERIOD   36
                    SECONDS     MINUTES      HOURS       DAYS        YEARS
                    -----------------------------------------------------------
   TIME STEP LENGTH  86400.      1440.0      24.000      1.0000     2.73785E-03
 STRESS PERIOD TIME  86400.      1440.0      24.000      1.0000     2.73785E-03
         TOTAL TIME 3.11040E+06  51840.      864.00      36.000     9.85626E-02
1
1
                            STRESS PERIOD NO.   37, LENGTH =   1.000000    
                            -----------------------------------------------

                              NUMBER OF TIME STEPS =     1

                               MULTIPLIER FOR DELT =     1.000

                            INITIAL TIME STEP SIZE =   1.000000    

 REUSING NON-PARAMETER RIVER REACHES FROM LAST STRESS PERIOD

      2 RIVER REACHES

                 RECHARGE = -4.000000E-04
 
 SOLVING FOR HEAD 

 OUTPUT CONTROL FOR STRESS PERIOD   37   TIME STEP    1
    SAVE HEAD FOR ALL LAYERS

 HEAD WILL BE SAVED ON UNIT   51 AT END OF TIME STEP    1, STRESS PERIOD   37
1
  VOLUMETRIC BUDGET FOR ENTIRE MODEL AT END OF TIME STEP    1, STRESS PERIOD  37
  ------------------------------------------------------------------------------

     CUMULATIVE VOLUMES      L**3       RATES FOR THIS TIME STEP      L**3/T
     ------------------                 ------------------------

           IN:                                      IN:
           ---                                      ---
             STORAGE =         255.0502               STORAGE =          12.3530
       CONSTANT HEAD =           0.0000         CONSTANT HEAD =           0.0000
       RIVER LEAKAGE =           0.0000         RIVER LEAKAGE =           0.0000
            RECHARGE =         582.0000              RECHARGE =           0.0000

            TOTAL IN =         837.0502              TOTAL IN =          12.3530

          OUT:                                     OUT:
          ----                                     ----
             STORAGE =         447.7568               STORAGE =       8.1106E-02
       CONSTANT HEAD =         121.1780         CONSTANT HEAD =           3.2983
       RIVER LEAKAGE =         202.3646         RIVER LEAKAGE =           4.9734
            RECHARGE =          65.7500              RECHARGE =           4.0000

           TOTAL OUT =         837.0494             TOTAL OUT =          12.3528

            IN - OUT =       7.9346E-04              IN - OUT =       2.0123E-04

 PERCENT DISCREPANCY =           0.00     PERCENT DISCREPANCY =           0.00






         TIME SUMMARY AT END OF TIME STEP    1 IN STRESS PERIOD   37
                    SECONDS     MINUTES      HOURS       DAYS        YEARS
                    -----------------------------------------------------------
   TIME STEP LENGTH  86400.      1440.0      24.000      1.0000     2.73785E-03
 STRESS PERIOD TIME  86400.      1440.0      24.000      1.0000     2.73785E-03
         TOTAL TIME 3.19680E+06  53280.      888.00      37.000     0.10130    
1
1
                            STRESS PERIOD NO.   38, LENGTH =   1.000000    
                            -----------------------------------------------

                              NUMBER OF TIME STEPS =     1

                               MULTIPLIER FOR DELT =     1.000

                            INITIAL TIME STEP SIZE =   1.000000    

 REUSING NON-PARAMETER RIVER REACHES FROM LAST STRESS PERIOD

      2 RIVER REACHES

                 RECHARGE =  8.000000E-03
 
 SOLVING FOR HEAD 

 OUTPUT CONTROL FOR STRESS PERIOD   38   TIME STEP    1
    SAVE HEAD FOR ALL LAYERS

 HEAD WILL BE SAVED ON UNIT   51 AT END OF TIME STEP    1, STRESS PERIOD   38
1
  VOLUMETRIC BUDGET FOR ENTIRE MODEL AT END OF TIME STEP    1, STRESS PERIOD  38
  ------------------------------------------------------------------------------

     CUMULATIVE VOLUMES      L**3       RATES FOR THIS TIME STEP      L**3/T
     ------------------                 ------------------------

           IN:                                      IN:
           ---                                      ---
             STORAGE =         255.0502               STORAGE =           0.0000
       CONSTANT HEAD =           0.0000         CONSTANT HEAD =           0.0000
       RIVER LEAKAGE =           0.0000         RIVER LEAKAGE =           0.0000
            RECHARGE =         662.0000              RECHARGE =          80.0000

            TOTAL IN =         917.0502              TOTAL IN =          80.0000

          OUT:                                     OUT:
          ----                                     ----
             STORAGE =         516.8261               STORAGE =          69.0693
       CONSTANT HEAD =         124.4796         CONSTANT HEAD =           3.3016
       RIVER LEAKAGE =         209.9935         RIVER LEAKAGE =           7.6289
            RECHARGE =          65.7500              RECHARGE =           0.0000

           TOTAL OUT =         917.0493             TOTAL OUT =          79.9999

            IN - OUT =       9.1553E-04              IN - OUT =       1.4496E-04

 PERCENT DISCREPANCY =           0.00     PERCENT DISCREPANCY =           0.00






         TIME SUMMARY AT END OF TIME STEP    1 IN STRESS PERIOD   38
                    SECONDS     MINUTES      HOURS       DAYS        YEARS
                    -----------------------------------------------------------
   TIME STEP LENGTH  86400.      1440.0      24.000      1.0000     2.73785E-03
 STRESS PERIOD TIME  86400.      1440.0      24.000      1.0000     2.73785E-03
         TOTAL TIME 3.28320E+06  54720.      912.00      38.000     0.10404    
1
1
                            STRESS PERIOD NO.   39, LENGTH =   1.000000    
                            -----------------------------------------------

                              NUMBER OF TIME STEPS =     1

                               MULTIPLIER FOR DELT =     1.000

                            INITIAL TIME STEP SIZE =   1.000000    

 REUSING NON-PARAMETER RIVER REACHES FROM LAST STRESS PERIOD

      2 RIVER REACHES

                 RECHARGE = -5.750000E-04
 
 SOLVING FOR HEAD 

 OUTPUT CONTROL FOR STRESS PERIOD   39   TIME STEP    1
    SAVE HEAD FOR ALL LAYERS

 HEAD WILL BE SAVED ON UNIT   51 AT END OF TIME STEP    1, STRESS PERIOD   39
1
  VOLUMETRIC BUDGET FOR ENTIRE MODEL AT END OF TIME STEP    1, STRESS PERIOD  39
  ------------------------------------------------------------------------------

     CUMULATIVE VOLUMES      L**3       RATES FOR THIS TIME STEP      L**3/T
     ------------------                 ------------------------

           IN:                                      IN:
           ---                                      ---
             STORAGE =         270.4389               STORAGE =          15.3887
       CONSTANT HEAD =           0.0000         CONSTANT HEAD =           0.0000
       RIVER LEAKAGE =           0.0000         RIVER LEAKAGE =           0.0000
            RECHARGE =         662.0000              RECHARGE =           0.0000

            TOTAL IN =         932.4389              TOTAL IN =          15.3887

          OUT:                                     OUT:
          ----                                     ----
             STORAGE =         516.9380               STORAGE =           0.1119
       CONSTANT HEAD =         127.7826         CONSTANT HEAD =           3.3031
       RIVER LEAKAGE =         216.2172         RIVER LEAKAGE =           6.2237
            RECHARGE =          71.5000              RECHARGE =           5.7500

           TOTAL OUT =         932.4378             TOTAL OUT =          15.3886

            IN - OUT =       1.0986E-03              IN - OUT =       1.5259E-04

 PERCENT DISCREPANCY =           0.00     PERCENT DISCREPANCY =           0.00






         TIME SUMMARY AT END OF TIME STEP    1 IN STRESS PERIOD   39
                    SECONDS     MINUTES      HOURS       DAYS        YEARS
                    -----------------------------------------------------------
   TIME STEP LENGTH  86400.      1440.0      24.000      1.0000     2.73785E-03
 STRESS PERIOD TIME  86400.      1440.0      24.000      1.0000     2.73785E-03
         TOTAL TIME 3.36960E+06  56160.      936.00      39.000     0.10678    
1
1
                            STRESS PERIOD NO.   40, LENGTH =   1.000000    
                            -----------------------------------------------

                              NUMBER OF TIME STEPS =     1

                               MULTIPLIER FOR DELT =     1.000

                            INITIAL TIME STEP SIZE =   1.000000    

 REUSING NON-PARAMETER RIVER REACHES FROM LAST STRESS PERIOD

      2 RIVER REACHES

                 RECHARGE = -3.000000E-04
 
 SOLVING FOR HEAD 

 OUTPUT CONTROL FOR STRESS PERIOD   40   TIME STEP    1
    SAVE HEAD FOR ALL LAYERS

 HEAD WILL BE SAVED ON UNIT   51 AT END OF TIME STEP    1, STRESS PERIOD   40
1
  VOLUMETRIC BUDGET FOR ENTIRE MODEL AT END OF TIME STEP    1, STRESS PERIOD  40
  ------------------------------------------------------------------------------

     CUMULATIVE VOLUMES      L**3       RATES FOR THIS TIME STEP      L**3/T
     ------------------                 ------------------------

           IN:                                      IN:
           ---                                      ---
             STORAGE =         282.5118               STORAGE =          12.0729
       CONSTANT HEAD =           0.0000         CONSTANT HEAD =           0.0000
       RIVER LEAKAGE =           0.0000         RIVER LEAKAGE =           0.0000
            RECHARGE =         662.0000              RECHARGE =           0.0000

            TOTAL IN =         944.5118              TOTAL IN =          12.0729

          OUT:                                     OUT:
          ----                                     ----
             STORAGE =         517.0407               STORAGE =           0.1027
       CONSTANT HEAD =         131.0867         CONSTANT HEAD =           3.3041
       RIVER LEAKAGE =         221.8836         RIVER LEAKAGE =           5.6664
            RECHARGE =          74.5000              RECHARGE =           3.0000

           TOTAL OUT =         944.5110             TOTAL OUT =          12.0732

            IN - OUT =       8.5449E-04              IN - OUT =      -2.6894E-04

 PERCENT DISCREPANCY =           0.00     PERCENT DISCREPANCY =          -0.00






         TIME SUMMARY AT END OF TIME STEP    1 IN STRESS PERIOD   40
                    SECONDS     MINUTES      HOURS       DAYS        YEARS
                    -----------------------------------------------------------
   TIME STEP LENGTH  86400.      1440.0      24.000      1.0000     2.73785E-03
 STRESS PERIOD TIME  86400.      1440.0      24.000      1.0000     2.73785E-03
         TOTAL TIME 3.45600E+06  57600.      960.00      40.000     0.10951    
1
1
                            STRESS PERIOD NO.   41, LENGTH =   1.000000    
                            -----------------------------------------------

                              NUMBER OF TIME STEPS =     1

                               MULTIPLIER FOR DELT =     1.000

                            INITIAL TIME STEP SIZE =   1.000000    

 REUSING NON-PARAMETER RIVER REACHES FROM LAST STRESS PERIOD

      2 RIVER REACHES

                 RECHARGE =  2.400000E-03
 
 SOLVING FOR HEAD 

 OUTPUT CONTROL FOR STRESS PERIOD   41   TIME STEP    1
    SAVE HEAD FOR ALL LAYERS

 HEAD WILL BE SAVED ON UNIT   51 AT END OF TIME STEP    1, STRESS PERIOD   41
1
  VOLUMETRIC BUDGET FOR ENTIRE MODEL AT END OF TIME STEP    1, STRESS PERIOD  41
  ------------------------------------------------------------------------------

     CUMULATIVE VOLUMES      L**3       RATES FOR THIS TIME STEP      L**3/T
     ------------------                 ------------------------

           IN:                                      IN:
           ---                                      ---
             STORAGE =         282.5118               STORAGE =           0.0000
       CONSTANT HEAD =           0.0000         CONSTANT HEAD =           0.0000
       RIVER LEAKAGE =           0.0000         RIVER LEAKAGE =           0.0000
            RECHARGE =         686.0000              RECHARGE =          24.0000

            TOTAL IN =         968.5118              TOTAL IN =          24.0000

          OUT:                                     OUT:
          ----                                     ----
             STORAGE =         531.4907               STORAGE =          14.4500
       CONSTANT HEAD =         134.3926         CONSTANT HEAD =           3.3058
       RIVER LEAKAGE =         228.1279         RIVER LEAKAGE =           6.2443
            RECHARGE =          74.5000              RECHARGE =           0.0000

           TOTAL OUT =         968.5112             TOTAL OUT =          24.0002

            IN - OUT =       6.1035E-04              IN - OUT =      -1.8120E-04

 PERCENT DISCREPANCY =           0.00     PERCENT DISCREPANCY =          -0.00






         TIME SUMMARY AT END OF TIME STEP    1 IN STRESS PERIOD   41
                    SECONDS     MINUTES      HOURS       DAYS        YEARS
                    -----------------------------------------------------------
   TIME STEP LENGTH  86400.      1440.0      24.000      1.0000     2.73785E-03
 STRESS PERIOD TIME  86400.      1440.0      24.000      1.0000     2.73785E-03
         TOTAL TIME 3.54240E+06  59040.      984.00      41.000     0.11225    
1
1
                            STRESS PERIOD NO.   42, LENGTH =   1.000000    
                            -----------------------------------------------

                              NUMBER OF TIME STEPS =     1

                               MULTIPLIER FOR DELT =     1.000

                            INITIAL TIME STEP SIZE =   1.000000    

 REUSING NON-PARAMETER RIVER REACHES FROM LAST STRESS PERIOD

      2 RIVER REACHES

                 RECHARGE =  1.000000E-04
 
 SOLVING FOR HEAD 

 OUTPUT CONTROL FOR STRESS PERIOD   42   TIME STEP    1
    SAVE HEAD FOR ALL LAYERS

 HEAD WILL BE SAVED ON UNIT   51 AT END OF TIME STEP    1, STRESS PERIOD   42
1
  VOLUMETRIC BUDGET FOR ENTIRE MODEL AT END OF TIME STEP    1, STRESS PERIOD  42
  ------------------------------------------------------------------------------

     CUMULATIVE VOLUMES      L**3       RATES FOR THIS TIME STEP      L**3/T
     ------------------                 ------------------------

           IN:                                      IN:
           ---                                      ---
             STORAGE =         290.6690               STORAGE =           8.1572
       CONSTANT HEAD =           0.0000         CONSTANT HEAD =           0.0000
       RIVER LEAKAGE =           0.0000         RIVER LEAKAGE =           0.0000
            RECHARGE =         687.0000              RECHARGE =           1.0000

            TOTAL IN =         977.6690              TOTAL IN =           9.1572

          OUT:                                     OUT:
          ----                                     ----
             STORAGE =         531.5945               STORAGE =           0.1038
       CONSTANT HEAD =         137.6996         CONSTANT HEAD =           3.3070
       RIVER LEAKAGE =         233.8743         RIVER LEAKAGE =           5.7464
            RECHARGE =          74.5000              RECHARGE =           0.0000

           TOTAL OUT =         977.6683             TOTAL OUT =           9.1571

            IN - OUT =       6.7139E-04              IN - OUT =       2.0027E-05

 PERCENT DISCREPANCY =           0.00     PERCENT DISCREPANCY =           0.00






         TIME SUMMARY AT END OF TIME STEP    1 IN STRESS PERIOD   42
                    SECONDS     MINUTES      HOURS       DAYS        YEARS
                    -----------------------------------------------------------
   TIME STEP LENGTH  86400.      1440.0      24.000      1.0000     2.73785E-03
 STRESS PERIOD TIME  86400.      1440.0      24.000      1.0000     2.73785E-03
         TOTAL TIME 3.62880E+06  60480.      1008.0      42.000     0.11499    
1
1
                            STRESS PERIOD NO.   43, LENGTH =   1.000000    
                            -----------------------------------------------

                              NUMBER OF TIME STEPS =     1

                               MULTIPLIER FOR DELT =     1.000

                            INITIAL TIME STEP SIZE =   1.000000    

 REUSING NON-PARAMETER RIVER REACHES FROM LAST STRESS PERIOD

      2 RIVER REACHES

                 RECHARGE = -7.500000E-05
 
 SOLVING FOR HEAD 

 OUTPUT CONTROL FOR STRESS PERIOD   43   TIME STEP    1
    SAVE HEAD FOR ALL LAYERS

 HEAD WILL BE SAVED ON UNIT   51 AT END OF TIME STEP    1, STRESS PERIOD   43
1
  VOLUMETRIC BUDGET FOR ENTIRE MODEL AT END OF TIME STEP    1, STRESS PERIOD  43
  ------------------------------------------------------------------------------

     CUMULATIVE VOLUMES      L**3       RATES FOR THIS TIME STEP      L**3/T
     ------------------                 ------------------------

           IN:                                      IN:
           ---                                      ---
             STORAGE =         300.2308               STORAGE =           9.5618
       CONSTANT HEAD =           0.0000         CONSTANT HEAD =           0.0000
       RIVER LEAKAGE =           0.0000         RIVER LEAKAGE =           0.0000
            RECHARGE =         687.0000              RECHARGE =           0.0000

            TOTAL IN =         987.2308              TOTAL IN =           9.5618

          OUT:                                     OUT:
          ----                                     ----
             STORAGE =         531.6909               STORAGE =       9.6450E-02
       CONSTANT HEAD =         141.0075         CONSTANT HEAD =           3.3079
       RIVER LEAKAGE =         239.2816         RIVER LEAKAGE =           5.4074
            RECHARGE =          75.2500              RECHARGE =           0.7500

           TOTAL OUT =         987.2300             TOTAL OUT =           9.5617

            IN - OUT =       7.9346E-04              IN - OUT =       8.3923E-05

 PERCENT DISCREPANCY =           0.00     PERCENT DISCREPANCY =           0.00






         TIME SUMMARY AT END OF TIME STEP    1 IN STRESS PERIOD   43
                    SECONDS     MINUTES      HOURS       DAYS        YEARS
                    -----------------------------------------------------------
   TIME STEP LENGTH  86400.      1440.0      24.000      1.0000     2.73785E-03
 STRESS PERIOD TIME  86400.      1440.0      24.000      1.0000     2.73785E-03
         TOTAL TIME 3.71520E+06  61920.      1032.0      43.000     0.11773    
1
1
                            STRESS PERIOD NO.   44, LENGTH =   1.000000    
                            -----------------------------------------------

                              NUMBER OF TIME STEPS =     1

                               MULTIPLIER FOR DELT =     1.000

                            INITIAL TIME STEP SIZE =   1.000000    

 REUSING NON-PARAMETER RIVER REACHES FROM LAST STRESS PERIOD

      2 RIVER REACHES

                 RECHARGE =  1.000000E-04
 
 SOLVING FOR HEAD 

 OUTPUT CONTROL FOR STRESS PERIOD   44   TIME STEP    1
    SAVE HEAD FOR ALL LAYERS

 HEAD WILL BE SAVED ON UNIT   51 AT END OF TIME STEP    1, STRESS PERIOD   44
1
  VOLUMETRIC BUDGET FOR ENTIRE MODEL AT END OF TIME STEP    1, STRESS PERIOD  44
  ------------------------------------------------------------------------------

     CUMULATIVE VOLUMES      L**3       RATES FOR THIS TIME STEP      L**3/T
     ------------------                 ------------------------

           IN:                                      IN:
           ---                                      ---
             STORAGE =         307.8573               STORAGE =           7.6265
       CONSTANT HEAD =           0.0000         CONSTANT HEAD =           0.0000
       RIVER LEAKAGE =           0.0000         RIVER LEAKAGE =           0.0000
            RECHARGE =         688.0000              RECHARGE =           1.0000

            TOTAL IN =         995.8573              TOTAL IN =           8.6265

          OUT:                                     OUT:
          ----                                     ----
             STORAGE =         531.7814               STORAGE =       9.0522E-02
       CONSTANT HEAD =         144.3162         CONSTANT HEAD =           3.3087
       RIVER LEAKAGE =         244.5089         RIVER LEAKAGE =           5.2272
            RECHARGE =          75.2500              RECHARGE =           0.0000

           TOTAL OUT =         995.8564             TOTAL OUT =           8.6264

            IN - OUT =       8.5449E-04              IN - OUT =       5.1498E-05

 PERCENT DISCREPANCY =           0.00     PERCENT DISCREPANCY =           0.00






         TIME SUMMARY AT END OF TIME STEP    1 IN STRESS PERIOD   44
                    SECONDS     MINUTES      HOURS       DAYS        YEARS
                    -----------------------------------------------------------
   TIME STEP LENGTH  86400.      1440.0      24.000      1.0000     2.73785E-03
 STRESS PERIOD TIME  86400.      1440.0      24.000      1.0000     2.73785E-03
         TOTAL TIME 3.80160E+06  63360.      1056.0      44.000     0.12047    
1
1
                            STRESS PERIOD NO.   45, LENGTH =   1.000000    
                            -----------------------------------------------

                              NUMBER OF TIME STEPS =     1

                               MULTIPLIER FOR DELT =     1.000

                            INITIAL TIME STEP SIZE =   1.000000    

 REUSING NON-PARAMETER RIVER REACHES FROM LAST STRESS PERIOD

      2 RIVER REACHES

                 RECHARGE =  4.300000E-03
 
 SOLVING FOR HEAD 

 OUTPUT CONTROL FOR STRESS PERIOD   45   TIME STEP    1
    SAVE HEAD FOR ALL LAYERS

 HEAD WILL BE SAVED ON UNIT   51 AT END OF TIME STEP    1, STRESS PERIOD   45
1
  VOLUMETRIC BUDGET FOR ENTIRE MODEL AT END OF TIME STEP    1, STRESS PERIOD  45
  ------------------------------------------------------------------------------

     CUMULATIVE VOLUMES      L**3       RATES FOR THIS TIME STEP      L**3/T
     ------------------                 ------------------------

           IN:                                      IN:
           ---                                      ---
             STORAGE =         307.8573               STORAGE =           0.0000
       CONSTANT HEAD =           0.0000         CONSTANT HEAD =           0.0000
       RIVER LEAKAGE =           0.0000         RIVER LEAKAGE =           0.0000
            RECHARGE =         731.0000              RECHARGE =          43.0000

            TOTAL IN =        1038.8573              TOTAL IN =          43.0000

          OUT:                                     OUT:
          ----                                     ----
             STORAGE =         564.9236               STORAGE =          33.1422
       CONSTANT HEAD =         147.6270         CONSTANT HEAD =           3.3108
       RIVER LEAKAGE =         251.0561         RIVER LEAKAGE =           6.5473
            RECHARGE =          75.2500              RECHARGE =           0.0000

           TOTAL OUT =        1038.8567             TOTAL OUT =          43.0002

            IN - OUT =       6.1035E-04              IN - OUT =      -2.4796E-04

 PERCENT DISCREPANCY =           0.00     PERCENT DISCREPANCY =          -0.00






         TIME SUMMARY AT END OF TIME STEP    1 IN STRESS PERIOD   45
                    SECONDS     MINUTES      HOURS       DAYS        YEARS
                    -----------------------------------------------------------
   TIME STEP LENGTH  86400.      1440.0      24.000      1.0000     2.73785E-03
 STRESS PERIOD TIME  86400.      1440.0      24.000      1.0000     2.73785E-03
         TOTAL TIME 3.88800E+06  64800.      1080.0      45.000     0.12320    
1
1
                            STRESS PERIOD NO.   46, LENGTH =   1.000000    
                            -----------------------------------------------

                              NUMBER OF TIME STEPS =     1

                               MULTIPLIER FOR DELT =     1.000

                            INITIAL TIME STEP SIZE =   1.000000    

 REUSING NON-PARAMETER RIVER REACHES FROM LAST STRESS PERIOD

      2 RIVER REACHES

                 RECHARGE = -3.000000E-04
 
 SOLVING FOR HEAD 

 OUTPUT CONTROL FOR STRESS PERIOD   46   TIME STEP    1
    SAVE HEAD FOR ALL LAYERS

 HEAD WILL BE SAVED ON UNIT   51 AT END OF TIME STEP    1, STRESS PERIOD   46
1
  VOLUMETRIC BUDGET FOR ENTIRE MODEL AT END OF TIME STEP    1, STRESS PERIOD  46
  ------------------------------------------------------------------------------

     CUMULATIVE VOLUMES      L**3       RATES FOR THIS TIME STEP      L**3/T
     ------------------                 ------------------------

           IN:                                      IN:
           ---                                      ---
             STORAGE =         319.9874               STORAGE =          12.1301
       CONSTANT HEAD =           0.0000         CONSTANT HEAD =           0.0000
       RIVER LEAKAGE =           0.0000         RIVER LEAKAGE =           0.0000
            RECHARGE =         731.0000              RECHARGE =           0.0000

            TOTAL IN =        1050.9873              TOTAL IN =          12.1301

          OUT:                                     OUT:
          ----                                     ----
             STORAGE =         565.0247               STORAGE =           0.1011
       CONSTANT HEAD =         150.9389         CONSTANT HEAD =           3.3119
       RIVER LEAKAGE =         256.7734         RIVER LEAKAGE =           5.7173
            RECHARGE =          78.2500              RECHARGE =           3.0000

           TOTAL OUT =        1050.9871             TOTAL OUT =          12.1303

            IN - OUT =       2.4414E-04              IN - OUT =      -2.4700E-04

 PERCENT DISCREPANCY =           0.00     PERCENT DISCREPANCY =          -0.00






         TIME SUMMARY AT END OF TIME STEP    1 IN STRESS PERIOD   46
                    SECONDS     MINUTES      HOURS       DAYS        YEARS
                    -----------------------------------------------------------
   TIME STEP LENGTH  86400.      1440.0      24.000      1.0000     2.73785E-03
 STRESS PERIOD TIME  86400.      1440.0      24.000      1.0000     2.73785E-03
         TOTAL TIME 3.97440E+06  66240.      1104.0      46.000     0.12594    
1
1
                            STRESS PERIOD NO.   47, LENGTH =   1.000000    
                            -----------------------------------------------

                              NUMBER OF TIME STEPS =     1

                               MULTIPLIER FOR DELT =     1.000

                            INITIAL TIME STEP SIZE =   1.000000    

 REUSING NON-PARAMETER RIVER REACHES FROM LAST STRESS PERIOD

      2 RIVER REACHES

                 RECHARGE = -9.000000E-04
 
 SOLVING FOR HEAD 

 OUTPUT CONTROL FOR STRESS PERIOD   47   TIME STEP    1
    SAVE HEAD FOR ALL LAYERS

 HEAD WILL BE SAVED ON UNIT   51 AT END OF TIME STEP    1, STRESS PERIOD   47
1
  VOLUMETRIC BUDGET FOR ENTIRE MODEL AT END OF TIME STEP    1, STRESS PERIOD  47
  ------------------------------------------------------------------------------

     CUMULATIVE VOLUMES      L**3       RATES FOR THIS TIME STEP      L**3/T
     ------------------                 ------------------------

           IN:                                      IN:
           ---                                      ---
             STORAGE =         337.4789               STORAGE =          17.4915
       CONSTANT HEAD =           0.0000         CONSTANT HEAD =           0.0000
       RIVER LEAKAGE =           0.0000         RIVER LEAKAGE =           0.0000
            RECHARGE =         731.0000              RECHARGE =           0.0000

            TOTAL IN =        1068.4789              TOTAL IN =          17.4915

          OUT:                                     OUT:
          ----                                     ----
             STORAGE =         565.1134               STORAGE =       8.8755E-02
       CONSTANT HEAD =         154.2514         CONSTANT HEAD =           3.3125
       RIVER LEAKAGE =         261.8638         RIVER LEAKAGE =           5.0904
            RECHARGE =          87.2500              RECHARGE =           9.0000

           TOTAL OUT =        1068.4786             TOTAL OUT =          17.4916

            IN - OUT =       2.4414E-04              IN - OUT =      -1.5068E-04

 PERCENT DISCREPANCY =           0.00     PERCENT DISCREPANCY =          -0.00






         TIME SUMMARY AT END OF TIME STEP    1 IN STRESS PERIOD   47
                    SECONDS     MINUTES      HOURS       DAYS        YEARS
                    -----------------------------------------------------------
   TIME STEP LENGTH  86400.      1440.0      24.000      1.0000     2.73785E-03
 STRESS PERIOD TIME  86400.      1440.0      24.000      1.0000     2.73785E-03
         TOTAL TIME 4.06080E+06  67680.      1128.0      47.000     0.12868    
1
1
                            STRESS PERIOD NO.   48, LENGTH =   1.000000    
                            -----------------------------------------------

                              NUMBER OF TIME STEPS =     1

                               MULTIPLIER FOR DELT =     1.000

                            INITIAL TIME STEP SIZE =   1.000000    

 REUSING NON-PARAMETER RIVER REACHES FROM LAST STRESS PERIOD

      2 RIVER REACHES

                 RECHARGE = -1.000000E-03
 
 SOLVING FOR HEAD 

 OUTPUT CONTROL FOR STRESS PERIOD   48   TIME STEP    1
    SAVE HEAD FOR ALL LAYERS

 HEAD WILL BE SAVED ON UNIT   51 AT END OF TIME STEP    1, STRESS PERIOD   48
1
  VOLUMETRIC BUDGET FOR ENTIRE MODEL AT END OF TIME STEP    1, STRESS PERIOD  48
  ------------------------------------------------------------------------------

     CUMULATIVE VOLUMES      L**3       RATES FOR THIS TIME STEP      L**3/T
     ------------------                 ------------------------

           IN:                                      IN:
           ---                                      ---
             STORAGE =         355.5017               STORAGE =          18.0228
       CONSTANT HEAD =           0.0000         CONSTANT HEAD =           0.0000
       RIVER LEAKAGE =           0.0000         RIVER LEAKAGE =           0.0000
            RECHARGE =         731.0000              RECHARGE =           0.0000

            TOTAL IN =        1086.5017              TOTAL IN =          18.0228

          OUT:                                     OUT:
          ----                                     ----
             STORAGE =         565.1899               STORAGE =       7.6463E-02
       CONSTANT HEAD =         157.5642         CONSTANT HEAD =           3.3127
       RIVER LEAKAGE =         266.4972         RIVER LEAKAGE =           4.6334
            RECHARGE =          97.2500              RECHARGE =          10.0000

           TOTAL OUT =        1086.5012             TOTAL OUT =          18.0226

            IN - OUT =       4.8828E-04              IN - OUT =       2.4223E-04

 PERCENT DISCREPANCY =           0.00     PERCENT DISCREPANCY =           0.00






         TIME SUMMARY AT END OF TIME STEP    1 IN STRESS PERIOD   48
                    SECONDS     MINUTES      HOURS       DAYS        YEARS
                    -----------------------------------------------------------
   TIME STEP LENGTH  86400.      1440.0      24.000      1.0000     2.73785E-03
 STRESS PERIOD TIME  86400.      1440.0      24.000      1.0000     2.73785E-03
         TOTAL TIME 4.14720E+06  69120.      1152.0      48.000     0.13142    
1
1
                            STRESS PERIOD NO.   49, LENGTH =   1.000000    
                            -----------------------------------------------

                              NUMBER OF TIME STEPS =     1

                               MULTIPLIER FOR DELT =     1.000

                            INITIAL TIME STEP SIZE =   1.000000    

 REUSING NON-PARAMETER RIVER REACHES FROM LAST STRESS PERIOD

      2 RIVER REACHES

                 RECHARGE = -9.750000E-04
 
 SOLVING FOR HEAD 

 OUTPUT CONTROL FOR STRESS PERIOD   49   TIME STEP    1
    SAVE HEAD FOR ALL LAYERS

 HEAD WILL BE SAVED ON UNIT   51 AT END OF TIME STEP    1, STRESS PERIOD   49
1
  VOLUMETRIC BUDGET FOR ENTIRE MODEL AT END OF TIME STEP    1, STRESS PERIOD  49
  ------------------------------------------------------------------------------

     CUMULATIVE VOLUMES      L**3       RATES FOR THIS TIME STEP      L**3/T
     ------------------                 ------------------------

           IN:                                      IN:
           ---                                      ---
             STORAGE =         372.9166               STORAGE =          17.4150
       CONSTANT HEAD =           0.0000         CONSTANT HEAD =           0.0000
       RIVER LEAKAGE =           0.0000         RIVER LEAKAGE =           0.0000
            RECHARGE =         731.0000              RECHARGE =           0.0000

            TOTAL IN =        1103.9166              TOTAL IN =          17.4150

          OUT:                                     OUT:
          ----                                     ----
             STORAGE =         565.2547               STORAGE =       6.4792E-02
       CONSTANT HEAD =         160.8769         CONSTANT HEAD =           3.3128
       RIVER LEAKAGE =         270.7847         RIVER LEAKAGE =           4.2876
            RECHARGE =         107.0000              RECHARGE =           9.7500

           TOTAL OUT =        1103.9164             TOTAL OUT =          17.4151

            IN - OUT =       2.4414E-04              IN - OUT =      -1.5640E-04

 PERCENT DISCREPANCY =           0.00     PERCENT DISCREPANCY =          -0.00






         TIME SUMMARY AT END OF TIME STEP    1 IN STRESS PERIOD   49
                    SECONDS     MINUTES      HOURS       DAYS        YEARS
                    -----------------------------------------------------------
   TIME STEP LENGTH  86400.      1440.0      24.000      1.0000     2.73785E-03
 STRESS PERIOD TIME  86400.      1440.0      24.000      1.0000     2.73785E-03
         TOTAL TIME 4.23360E+06  70560.      1176.0      49.000     0.13415    
1
1
                            STRESS PERIOD NO.   50, LENGTH =   1.000000    
                            -----------------------------------------------

                              NUMBER OF TIME STEPS =     1

                               MULTIPLIER FOR DELT =     1.000

                            INITIAL TIME STEP SIZE =   1.000000    

 REUSING NON-PARAMETER RIVER REACHES FROM LAST STRESS PERIOD

      2 RIVER REACHES

                 RECHARGE =  1.000000E-04
 
 SOLVING FOR HEAD 

 OUTPUT CONTROL FOR STRESS PERIOD   50   TIME STEP    1
    SAVE HEAD FOR ALL LAYERS

 HEAD WILL BE SAVED ON UNIT   51 AT END OF TIME STEP    1, STRESS PERIOD   50
1
  VOLUMETRIC BUDGET FOR ENTIRE MODEL AT END OF TIME STEP    1, STRESS PERIOD  50
  ------------------------------------------------------------------------------

     CUMULATIVE VOLUMES      L**3       RATES FOR THIS TIME STEP      L**3/T
     ------------------                 ------------------------

           IN:                                      IN:
           ---                                      ---
             STORAGE =         379.6869               STORAGE =           6.7703
       CONSTANT HEAD =           0.0000         CONSTANT HEAD =           0.0000
       RIVER LEAKAGE =           0.0000         RIVER LEAKAGE =           0.0000
            RECHARGE =         732.0000              RECHARGE =           1.0000

            TOTAL IN =        1111.6869              TOTAL IN =           7.7703

          OUT:                                     OUT:
          ----                                     ----
             STORAGE =         565.3402               STORAGE =       8.5494E-02
       CONSTANT HEAD =         164.1899         CONSTANT HEAD =           3.3129
       RIVER LEAKAGE =         275.1565         RIVER LEAKAGE =           4.3718
            RECHARGE =         107.0000              RECHARGE =           0.0000

           TOTAL OUT =        1111.6866             TOTAL OUT =           7.7702

            IN - OUT =       2.4414E-04              IN - OUT =       2.2888E-05

 PERCENT DISCREPANCY =           0.00     PERCENT DISCREPANCY =           0.00






         TIME SUMMARY AT END OF TIME STEP    1 IN STRESS PERIOD   50
                    SECONDS     MINUTES      HOURS       DAYS        YEARS
                    -----------------------------------------------------------
   TIME STEP LENGTH  86400.      1440.0      24.000      1.0000     2.73785E-03
 STRESS PERIOD TIME  86400.      1440.0      24.000      1.0000     2.73785E-03
         TOTAL TIME 4.32000E+06  72000.      1200.0      50.000     0.13689    
1
1
                            STRESS PERIOD NO.   51, LENGTH =   1.000000    
                            -----------------------------------------------

                              NUMBER OF TIME STEPS =     1

                               MULTIPLIER FOR DELT =     1.000

                            INITIAL TIME STEP SIZE =   1.000000    

 REUSING NON-PARAMETER RIVER REACHES FROM LAST STRESS PERIOD

      2 RIVER REACHES

                 RECHARGE =  2.000000E-04
 
 SOLVING FOR HEAD 

 OUTPUT CONTROL FOR STRESS PERIOD   51   TIME STEP    1
    SAVE HEAD FOR ALL LAYERS

 HEAD WILL BE SAVED ON UNIT   51 AT END OF TIME STEP    1, STRESS PERIOD   51
1
  VOLUMETRIC BUDGET FOR ENTIRE MODEL AT END OF TIME STEP    1, STRESS PERIOD  51
  ------------------------------------------------------------------------------

     CUMULATIVE VOLUMES      L**3       RATES FOR THIS TIME STEP      L**3/T
     ------------------                 ------------------------

           IN:                                      IN:
           ---                                      ---
             STORAGE =         385.4434               STORAGE =           5.7565
       CONSTANT HEAD =           0.0000         CONSTANT HEAD =           0.0000
       RIVER LEAKAGE =           0.0000         RIVER LEAKAGE =           0.0000
            RECHARGE =         734.0000              RECHARGE =           2.0000

            TOTAL IN =        1119.4434              TOTAL IN =           7.7565

          OUT:                                     OUT:
          ----                                     ----
             STORAGE =         565.3984               STORAGE =       5.8252E-02
       CONSTANT HEAD =         167.5031         CONSTANT HEAD =           3.3132
       RIVER LEAKAGE =         279.5415         RIVER LEAKAGE =           4.3850
            RECHARGE =         107.0000              RECHARGE =           0.0000

           TOTAL OUT =        1119.4430             TOTAL OUT =           7.7564

            IN - OUT =       3.6621E-04              IN - OUT =       1.2016E-04

 PERCENT DISCREPANCY =           0.00     PERCENT DISCREPANCY =           0.00






         TIME SUMMARY AT END OF TIME STEP    1 IN STRESS PERIOD   51
                    SECONDS     MINUTES      HOURS       DAYS        YEARS
                    -----------------------------------------------------------
   TIME STEP LENGTH  86400.      1440.0      24.000      1.0000     2.73785E-03
 STRESS PERIOD TIME  86400.      1440.0      24.000      1.0000     2.73785E-03
         TOTAL TIME 4.40640E+06  73440.      1224.0      51.000     0.13963    
1
1
                            STRESS PERIOD NO.   52, LENGTH =   1.000000    
                            -----------------------------------------------

                              NUMBER OF TIME STEPS =     1

                               MULTIPLIER FOR DELT =     1.000

                            INITIAL TIME STEP SIZE =   1.000000    

 REUSING NON-PARAMETER RIVER REACHES FROM LAST STRESS PERIOD

      2 RIVER REACHES

                 RECHARGE = -8.000000E-04
 
 SOLVING FOR HEAD 

 OUTPUT CONTROL FOR STRESS PERIOD   52   TIME STEP    1
    SAVE HEAD FOR ALL LAYERS

 HEAD WILL BE SAVED ON UNIT   51 AT END OF TIME STEP    1, STRESS PERIOD   52
1
  VOLUMETRIC BUDGET FOR ENTIRE MODEL AT END OF TIME STEP    1, STRESS PERIOD  52
  ------------------------------------------------------------------------------

     CUMULATIVE VOLUMES      L**3       RATES FOR THIS TIME STEP      L**3/T
     ------------------                 ------------------------

           IN:                                      IN:
           ---                                      ---
             STORAGE =         400.8090               STORAGE =          15.3656
       CONSTANT HEAD =           0.0000         CONSTANT HEAD =           0.0000
       RIVER LEAKAGE =           0.0000         RIVER LEAKAGE =           0.0000
            RECHARGE =         734.0000              RECHARGE =           0.0000

            TOTAL IN =        1134.8090              TOTAL IN =          15.3656

          OUT:                                     OUT:
          ----                                     ----
             STORAGE =         565.4443               STORAGE =       4.5915E-02
       CONSTANT HEAD =         170.8161         CONSTANT HEAD =           3.3130
       RIVER LEAKAGE =         283.5483         RIVER LEAKAGE =           4.0068
            RECHARGE =         115.0000              RECHARGE =           8.0000

           TOTAL OUT =        1134.8087             TOTAL OUT =          15.3657

            IN - OUT =       2.4414E-04              IN - OUT =      -1.4877E-04

 PERCENT DISCREPANCY =           0.00     PERCENT DISCREPANCY =          -0.00






         TIME SUMMARY AT END OF TIME STEP    1 IN STRESS PERIOD   52
                    SECONDS     MINUTES      HOURS       DAYS        YEARS
                    -----------------------------------------------------------
   TIME STEP LENGTH  86400.      1440.0      24.000      1.0000     2.73785E-03
 STRESS PERIOD TIME  86400.      1440.0      24.000      1.0000     2.73785E-03
         TOTAL TIME 4.49280E+06  74880.      1248.0      52.000     0.14237    
1
1
                            STRESS PERIOD NO.   53, LENGTH =   1.000000    
                            -----------------------------------------------

                              NUMBER OF TIME STEPS =     1

                               MULTIPLIER FOR DELT =     1.000

                            INITIAL TIME STEP SIZE =   1.000000    

 REUSING NON-PARAMETER RIVER REACHES FROM LAST STRESS PERIOD

      2 RIVER REACHES

                 RECHARGE =  3.000000E-04
 
 SOLVING FOR HEAD 

 OUTPUT CONTROL FOR STRESS PERIOD   53   TIME STEP    1
    SAVE HEAD FOR ALL LAYERS

 HEAD WILL BE SAVED ON UNIT   51 AT END OF TIME STEP    1, STRESS PERIOD   53
1
  VOLUMETRIC BUDGET FOR ENTIRE MODEL AT END OF TIME STEP    1, STRESS PERIOD  53
  ------------------------------------------------------------------------------

     CUMULATIVE VOLUMES      L**3       RATES FOR THIS TIME STEP      L**3/T
     ------------------                 ------------------------

           IN:                                      IN:
           ---                                      ---
             STORAGE =         405.3811               STORAGE =           4.5722
       CONSTANT HEAD =           0.0000         CONSTANT HEAD =           0.0000
       RIVER LEAKAGE =           0.0000         RIVER LEAKAGE =           0.0000
            RECHARGE =         737.0000              RECHARGE =           3.0000

            TOTAL IN =        1142.3811              TOTAL IN =           7.5722

          OUT:                                     OUT:
          ----                                     ----
             STORAGE =         565.5713               STORAGE =           0.1270
       CONSTANT HEAD =         174.1292         CONSTANT HEAD =           3.3131
       RIVER LEAKAGE =         287.6802         RIVER LEAKAGE =           4.1319
            RECHARGE =         115.0000              RECHARGE =           0.0000

           TOTAL OUT =        1142.3806             TOTAL OUT =           7.5720

            IN - OUT =       4.8828E-04              IN - OUT =       2.0313E-04

 PERCENT DISCREPANCY =           0.00     PERCENT DISCREPANCY =           0.00






         TIME SUMMARY AT END OF TIME STEP    1 IN STRESS PERIOD   53
                    SECONDS     MINUTES      HOURS       DAYS        YEARS
                    -----------------------------------------------------------
   TIME STEP LENGTH  86400.      1440.0      24.000      1.0000     2.73785E-03
 STRESS PERIOD TIME  86400.      1440.0      24.000      1.0000     2.73785E-03
         TOTAL TIME 4.57920E+06  76320.      1272.0      53.000     0.14511    
1
1
                            STRESS PERIOD NO.   54, LENGTH =   1.000000    
                            -----------------------------------------------

                              NUMBER OF TIME STEPS =     1

                               MULTIPLIER FOR DELT =     1.000

                            INITIAL TIME STEP SIZE =   1.000000    

 REUSING NON-PARAMETER RIVER REACHES FROM LAST STRESS PERIOD

      2 RIVER REACHES

                 RECHARGE =  5.100000E-03
 
 SOLVING FOR HEAD 

 OUTPUT CONTROL FOR STRESS PERIOD   54   TIME STEP    1
    SAVE HEAD FOR ALL LAYERS

 HEAD WILL BE SAVED ON UNIT   51 AT END OF TIME STEP    1, STRESS PERIOD   54
1
  VOLUMETRIC BUDGET FOR ENTIRE MODEL AT END OF TIME STEP    1, STRESS PERIOD  54
  ------------------------------------------------------------------------------

     CUMULATIVE VOLUMES      L**3       RATES FOR THIS TIME STEP      L**3/T
     ------------------                 ------------------------

           IN:                                      IN:
           ---                                      ---
             STORAGE =         405.3811               STORAGE =           0.0000
       CONSTANT HEAD =           0.0000         CONSTANT HEAD =           0.0000
       RIVER LEAKAGE =           0.0000         RIVER LEAKAGE =           0.0000
            RECHARGE =         788.0000              RECHARGE =          51.0000

            TOTAL IN =        1193.3811              TOTAL IN =          51.0000

          OUT:                                     OUT:
          ----                                     ----
             STORAGE =         607.4154               STORAGE =          41.8441
       CONSTANT HEAD =         177.4440         CONSTANT HEAD =           3.3148
       RIVER LEAKAGE =         293.5213         RIVER LEAKAGE =           5.8411
            RECHARGE =         115.0000              RECHARGE =           0.0000

           TOTAL OUT =        1193.3807             TOTAL OUT =          51.0001

            IN - OUT =       3.6621E-04              IN - OUT =      -8.3923E-05

 PERCENT DISCREPANCY =           0.00     PERCENT DISCREPANCY =          -0.00






         TIME SUMMARY AT END OF TIME STEP    1 IN STRESS PERIOD   54
                    SECONDS     MINUTES      HOURS       DAYS        YEARS
                    -----------------------------------------------------------
   TIME STEP LENGTH  86400.      1440.0      24.000      1.0000     2.73785E-03
 STRESS PERIOD TIME  86400.      1440.0      24.000      1.0000     2.73785E-03
         TOTAL TIME 4.66560E+06  77760.      1296.0      54.000     0.14784    
1
1
                            STRESS PERIOD NO.   55, LENGTH =   1.000000    
                            -----------------------------------------------

                              NUMBER OF TIME STEPS =     1

                               MULTIPLIER FOR DELT =     1.000

                            INITIAL TIME STEP SIZE =   1.000000    

 REUSING NON-PARAMETER RIVER REACHES FROM LAST STRESS PERIOD

      2 RIVER REACHES

                 RECHARGE = -7.000000E-04
 
 SOLVING FOR HEAD 

 OUTPUT CONTROL FOR STRESS PERIOD   55   TIME STEP    1
    SAVE HEAD FOR ALL LAYERS

 HEAD WILL BE SAVED ON UNIT   51 AT END OF TIME STEP    1, STRESS PERIOD   55
1
  VOLUMETRIC BUDGET FOR ENTIRE MODEL AT END OF TIME STEP    1, STRESS PERIOD  55
  ------------------------------------------------------------------------------

     CUMULATIVE VOLUMES      L**3       RATES FOR THIS TIME STEP      L**3/T
     ------------------                 ------------------------

           IN:                                      IN:
           ---                                      ---
             STORAGE =         420.6073               STORAGE =          15.2262
       CONSTANT HEAD =           0.0000         CONSTANT HEAD =           0.0000
       RIVER LEAKAGE =           0.0000         RIVER LEAKAGE =           0.0000
            RECHARGE =         788.0000              RECHARGE =           0.0000

            TOTAL IN =        1208.6073              TOTAL IN =          15.2262

          OUT:                                     OUT:
          ----                                     ----
             STORAGE =         607.4736               STORAGE =       5.8149E-02
       CONSTANT HEAD =         180.7593         CONSTANT HEAD =           3.3153
       RIVER LEAKAGE =         298.3741         RIVER LEAKAGE =           4.8528
            RECHARGE =         122.0000              RECHARGE =           7.0000

           TOTAL OUT =        1208.6069             TOTAL OUT =          15.2263

            IN - OUT =       3.6621E-04              IN - OUT =      -9.1553E-05

 PERCENT DISCREPANCY =           0.00     PERCENT DISCREPANCY =          -0.00






         TIME SUMMARY AT END OF TIME STEP    1 IN STRESS PERIOD   55
                    SECONDS     MINUTES      HOURS       DAYS        YEARS
                    -----------------------------------------------------------
   TIME STEP LENGTH  86400.      1440.0      24.000      1.0000     2.73785E-03
 STRESS PERIOD TIME  86400.      1440.0      24.000      1.0000     2.73785E-03
         TOTAL TIME 4.75200E+06  79200.      1320.0      55.000     0.15058    
1
1
                            STRESS PERIOD NO.   56, LENGTH =   1.000000    
                            -----------------------------------------------

                              NUMBER OF TIME STEPS =     1

                               MULTIPLIER FOR DELT =     1.000

                            INITIAL TIME STEP SIZE =   1.000000    

 REUSING NON-PARAMETER RIVER REACHES FROM LAST STRESS PERIOD

      2 RIVER REACHES

                 RECHARGE =  1.730000E-02
 
 SOLVING FOR HEAD 

 OUTPUT CONTROL FOR STRESS PERIOD   56   TIME STEP    1
    SAVE HEAD FOR ALL LAYERS

 HEAD WILL BE SAVED ON UNIT   51 AT END OF TIME STEP    1, STRESS PERIOD   56
1
  VOLUMETRIC BUDGET FOR ENTIRE MODEL AT END OF TIME STEP    1, STRESS PERIOD  56
  ------------------------------------------------------------------------------

     CUMULATIVE VOLUMES      L**3       RATES FOR THIS TIME STEP      L**3/T
     ------------------                 ------------------------

           IN:                                      IN:
           ---                                      ---
             STORAGE =         420.6073               STORAGE =           0.0000
       CONSTANT HEAD =           0.0000         CONSTANT HEAD =           0.0000
       RIVER LEAKAGE =           0.0000         RIVER LEAKAGE =           0.0000
            RECHARGE =         961.0000              RECHARGE =         173.0000

            TOTAL IN =        1381.6073              TOTAL IN =         173.0000

          OUT:                                     OUT:
          ----                                     ----
             STORAGE =         766.4378               STORAGE =         158.9642
       CONSTANT HEAD =         184.0810         CONSTANT HEAD =           3.3217
       RIVER LEAKAGE =         309.0880         RIVER LEAKAGE =          10.7140
            RECHARGE =         122.0000              RECHARGE =           0.0000

           TOTAL OUT =        1381.6068             TOTAL OUT =         172.9999

            IN - OUT =       4.8828E-04              IN - OUT =       1.2207E-04

 PERCENT DISCREPANCY =           0.00     PERCENT DISCREPANCY =           0.00






         TIME SUMMARY AT END OF TIME STEP    1 IN STRESS PERIOD   56
                    SECONDS     MINUTES      HOURS       DAYS        YEARS
                    -----------------------------------------------------------
   TIME STEP LENGTH  86400.      1440.0      24.000      1.0000     2.73785E-03
 STRESS PERIOD TIME  86400.      1440.0      24.000      1.0000     2.73785E-03
         TOTAL TIME 4.83840E+06  80640.      1344.0      56.000     0.15332    
1
1
                            STRESS PERIOD NO.   57, LENGTH =   1.000000    
                            -----------------------------------------------

                              NUMBER OF TIME STEPS =     1

                               MULTIPLIER FOR DELT =     1.000

                            INITIAL TIME STEP SIZE =   1.000000    

 REUSING NON-PARAMETER RIVER REACHES FROM LAST STRESS PERIOD

      2 RIVER REACHES

                 RECHARGE =  1.430000E-02
 
 SOLVING FOR HEAD 

 OUTPUT CONTROL FOR STRESS PERIOD   57   TIME STEP    1
    SAVE HEAD FOR ALL LAYERS

 HEAD WILL BE SAVED ON UNIT   51 AT END OF TIME STEP    1, STRESS PERIOD   57
1
  VOLUMETRIC BUDGET FOR ENTIRE MODEL AT END OF TIME STEP    1, STRESS PERIOD  57
  ------------------------------------------------------------------------------

     CUMULATIVE VOLUMES      L**3       RATES FOR THIS TIME STEP      L**3/T
     ------------------                 ------------------------

           IN:                                      IN:
           ---                                      ---
             STORAGE =         420.6073               STORAGE =           0.0000
       CONSTANT HEAD =           0.0000         CONSTANT HEAD =           0.0000
       RIVER LEAKAGE =           0.0000         RIVER LEAKAGE =           0.0000
            RECHARGE =        1104.0000              RECHARGE =         143.0000

            TOTAL IN =        1524.6073              TOTAL IN =         143.0000

          OUT:                                     OUT:
          ----                                     ----
             STORAGE =         892.7928               STORAGE =         126.3550
       CONSTANT HEAD =         187.4106         CONSTANT HEAD =           3.3296
       RIVER LEAKAGE =         322.4036         RIVER LEAKAGE =          13.3156
            RECHARGE =         122.0000              RECHARGE =           0.0000

           TOTAL OUT =        1524.6069             TOTAL OUT =         143.0002

            IN - OUT =       3.6621E-04              IN - OUT =      -1.5259E-04

 PERCENT DISCREPANCY =           0.00     PERCENT DISCREPANCY =          -0.00






         TIME SUMMARY AT END OF TIME STEP    1 IN STRESS PERIOD   57
                    SECONDS     MINUTES      HOURS       DAYS        YEARS
                    -----------------------------------------------------------
   TIME STEP LENGTH  86400.      1440.0      24.000      1.0000     2.73785E-03
 STRESS PERIOD TIME  86400.      1440.0      24.000      1.0000     2.73785E-03
         TOTAL TIME 4.92480E+06  82080.      1368.0      57.000     0.15606    
1
1
                            STRESS PERIOD NO.   58, LENGTH =   1.000000    
                            -----------------------------------------------

                              NUMBER OF TIME STEPS =     1

                               MULTIPLIER FOR DELT =     1.000

                            INITIAL TIME STEP SIZE =   1.000000    

 REUSING NON-PARAMETER RIVER REACHES FROM LAST STRESS PERIOD

      2 RIVER REACHES

                 RECHARGE = -4.000000E-04
 
 SOLVING FOR HEAD 

 OUTPUT CONTROL FOR STRESS PERIOD   58   TIME STEP    1
    SAVE HEAD FOR ALL LAYERS

 HEAD WILL BE SAVED ON UNIT   51 AT END OF TIME STEP    1, STRESS PERIOD   58
1
  VOLUMETRIC BUDGET FOR ENTIRE MODEL AT END OF TIME STEP    1, STRESS PERIOD  58
  ------------------------------------------------------------------------------

     CUMULATIVE VOLUMES      L**3       RATES FOR THIS TIME STEP      L**3/T
     ------------------                 ------------------------

           IN:                                      IN:
           ---                                      ---
             STORAGE =         438.4549               STORAGE =          17.8476
       CONSTANT HEAD =           0.0000         CONSTANT HEAD =           0.0000
       RIVER LEAKAGE =           0.0000         RIVER LEAKAGE =           0.0000
            RECHARGE =        1104.0000              RECHARGE =           0.0000

            TOTAL IN =        1542.4548              TOTAL IN =          17.8476

          OUT:                                     OUT:
          ----                                     ----
             STORAGE =         893.0101               STORAGE =           0.2174
       CONSTANT HEAD =         190.7444         CONSTANT HEAD =           3.3338
       RIVER LEAKAGE =         332.6999         RIVER LEAKAGE =          10.2963
            RECHARGE =         126.0000              RECHARGE =           4.0000

           TOTAL OUT =        1542.4543             TOTAL OUT =          17.8474

            IN - OUT =       4.8828E-04              IN - OUT =       1.8120E-04

 PERCENT DISCREPANCY =           0.00     PERCENT DISCREPANCY =           0.00






         TIME SUMMARY AT END OF TIME STEP    1 IN STRESS PERIOD   58
                    SECONDS     MINUTES      HOURS       DAYS        YEARS
                    -----------------------------------------------------------
   TIME STEP LENGTH  86400.      1440.0      24.000      1.0000     2.73785E-03
 STRESS PERIOD TIME  86400.      1440.0      24.000      1.0000     2.73785E-03
         TOTAL TIME 5.01120E+06  83520.      1392.0      58.000     0.15880    
1
1
                            STRESS PERIOD NO.   59, LENGTH =   1.000000    
                            -----------------------------------------------

                              NUMBER OF TIME STEPS =     1

                               MULTIPLIER FOR DELT =     1.000

                            INITIAL TIME STEP SIZE =   1.000000    

 REUSING NON-PARAMETER RIVER REACHES FROM LAST STRESS PERIOD

      2 RIVER REACHES

                 RECHARGE =  3.000000E-04
 
 SOLVING FOR HEAD 

 OUTPUT CONTROL FOR STRESS PERIOD   59   TIME STEP    1
    SAVE HEAD FOR ALL LAYERS

 HEAD WILL BE SAVED ON UNIT   51 AT END OF TIME STEP    1, STRESS PERIOD   59
1
  VOLUMETRIC BUDGET FOR ENTIRE MODEL AT END OF TIME STEP    1, STRESS PERIOD  59
  ------------------------------------------------------------------------------

     CUMULATIVE VOLUMES      L**3       RATES FOR THIS TIME STEP      L**3/T
     ------------------                 ------------------------

           IN:                                      IN:
           ---                                      ---
             STORAGE =         448.1704               STORAGE =           9.7155
       CONSTANT HEAD =           0.0000         CONSTANT HEAD =           0.0000
       RIVER LEAKAGE =           0.0000         RIVER LEAKAGE =           0.0000
            RECHARGE =        1107.0000              RECHARGE =           3.0000

            TOTAL IN =        1555.1704              TOTAL IN =          12.7155

          OUT:                                     OUT:
          ----                                     ----
             STORAGE =         893.2175               STORAGE =           0.2074
       CONSTANT HEAD =         194.0815         CONSTANT HEAD =           3.3371
       RIVER LEAKAGE =         341.8706         RIVER LEAKAGE =           9.1708
            RECHARGE =         126.0000              RECHARGE =           0.0000

           TOTAL OUT =        1555.1697             TOTAL OUT =          12.7153

            IN - OUT =       7.3242E-04              IN - OUT =       2.5272E-04

 PERCENT DISCREPANCY =           0.00     PERCENT DISCREPANCY =           0.00






         TIME SUMMARY AT END OF TIME STEP    1 IN STRESS PERIOD   59
                    SECONDS     MINUTES      HOURS       DAYS        YEARS
                    -----------------------------------------------------------
   TIME STEP LENGTH  86400.      1440.0      24.000      1.0000     2.73785E-03
 STRESS PERIOD TIME  86400.      1440.0      24.000      1.0000     2.73785E-03
         TOTAL TIME 5.09760E+06  84960.      1416.0      59.000     0.16153    
1
1
                            STRESS PERIOD NO.   60, LENGTH =   1.000000    
                            -----------------------------------------------

                              NUMBER OF TIME STEPS =     1

                               MULTIPLIER FOR DELT =     1.000

                            INITIAL TIME STEP SIZE =   1.000000    

 REUSING NON-PARAMETER RIVER REACHES FROM LAST STRESS PERIOD

      2 RIVER REACHES

                 RECHARGE =  1.900000E-03
 
 SOLVING FOR HEAD 

 OUTPUT CONTROL FOR STRESS PERIOD   60   TIME STEP    1
    SAVE HEAD FOR ALL LAYERS

 HEAD WILL BE SAVED ON UNIT   51 AT END OF TIME STEP    1, STRESS PERIOD   60
1
  VOLUMETRIC BUDGET FOR ENTIRE MODEL AT END OF TIME STEP    1, STRESS PERIOD  60
  ------------------------------------------------------------------------------

     CUMULATIVE VOLUMES      L**3       RATES FOR THIS TIME STEP      L**3/T
     ------------------                 ------------------------

           IN:                                      IN:
           ---                                      ---
             STORAGE =         449.0558               STORAGE =           0.8854
       CONSTANT HEAD =           0.0000         CONSTANT HEAD =           0.0000
       RIVER LEAKAGE =           0.0000         RIVER LEAKAGE =           0.0000
            RECHARGE =        1126.0000              RECHARGE =          19.0000

            TOTAL IN =        1575.0558              TOTAL IN =          19.8854

          OUT:                                     OUT:
          ----                                     ----
             STORAGE =         900.7233               STORAGE =           7.5057
       CONSTANT HEAD =         197.4220         CONSTANT HEAD =           3.3405
       RIVER LEAKAGE =         350.9099         RIVER LEAKAGE =           9.0393
            RECHARGE =         126.0000              RECHARGE =           0.0000

           TOTAL OUT =        1575.0552             TOTAL OUT =          19.8855

            IN - OUT =       6.1035E-04              IN - OUT =      -9.7275E-05

 PERCENT DISCREPANCY =           0.00     PERCENT DISCREPANCY =          -0.00






         TIME SUMMARY AT END OF TIME STEP    1 IN STRESS PERIOD   60
                    SECONDS     MINUTES      HOURS       DAYS        YEARS
                    -----------------------------------------------------------
   TIME STEP LENGTH  86400.      1440.0      24.000      1.0000     2.73785E-03
 STRESS PERIOD TIME  86400.      1440.0      24.000      1.0000     2.73785E-03
         TOTAL TIME 5.18400E+06  86400.      1440.0      60.000     0.16427    
1
1
                            STRESS PERIOD NO.   61, LENGTH =   1.000000    
                            -----------------------------------------------

                              NUMBER OF TIME STEPS =     1

                               MULTIPLIER FOR DELT =     1.000

                            INITIAL TIME STEP SIZE =   1.000000    

 REUSING NON-PARAMETER RIVER REACHES FROM LAST STRESS PERIOD

      2 RIVER REACHES

                 RECHARGE =  1.350000E-02
 
 SOLVING FOR HEAD 

 OUTPUT CONTROL FOR STRESS PERIOD   61   TIME STEP    1
    SAVE HEAD FOR ALL LAYERS

 HEAD WILL BE SAVED ON UNIT   51 AT END OF TIME STEP    1, STRESS PERIOD   61
1
  VOLUMETRIC BUDGET FOR ENTIRE MODEL AT END OF TIME STEP    1, STRESS PERIOD  61
  ------------------------------------------------------------------------------

     CUMULATIVE VOLUMES      L**3       RATES FOR THIS TIME STEP      L**3/T
     ------------------                 ------------------------

           IN:                                      IN:
           ---                                      ---
             STORAGE =         449.0558               STORAGE =           0.0000
       CONSTANT HEAD =           0.0000         CONSTANT HEAD =           0.0000
       RIVER LEAKAGE =           0.0000         RIVER LEAKAGE =           0.0000
            RECHARGE =        1261.0000              RECHARGE =         135.0000

            TOTAL IN =        1710.0558              TOTAL IN =         135.0000

          OUT:                                     OUT:
          ----                                     ----
             STORAGE =        1019.3689               STORAGE =         118.6456
       CONSTANT HEAD =         200.7699         CONSTANT HEAD =           3.3479
       RIVER LEAKAGE =         363.9167         RIVER LEAKAGE =          13.0068
            RECHARGE =         126.0000              RECHARGE =           0.0000

           TOTAL OUT =        1710.0554             TOTAL OUT =         135.0002

            IN - OUT =       3.6621E-04              IN - OUT =      -2.4414E-04

 PERCENT DISCREPANCY =           0.00     PERCENT DISCREPANCY =          -0.00






         TIME SUMMARY AT END OF TIME STEP    1 IN STRESS PERIOD   61
                    SECONDS     MINUTES      HOURS       DAYS        YEARS
                    -----------------------------------------------------------
   TIME STEP LENGTH  86400.      1440.0      24.000      1.0000     2.73785E-03
 STRESS PERIOD TIME  86400.      1440.0      24.000      1.0000     2.73785E-03
         TOTAL TIME 5.27040E+06  87840.      1464.0      61.000     0.16701    
1
1
                            STRESS PERIOD NO.   62, LENGTH =   1.000000    
                            -----------------------------------------------

                              NUMBER OF TIME STEPS =     1

                               MULTIPLIER FOR DELT =     1.000

                            INITIAL TIME STEP SIZE =   1.000000    

 REUSING NON-PARAMETER RIVER REACHES FROM LAST STRESS PERIOD

      2 RIVER REACHES

                 RECHARGE =  2.200000E-03
 
 SOLVING FOR HEAD 

 OUTPUT CONTROL FOR STRESS PERIOD   62   TIME STEP    1
    SAVE HEAD FOR ALL LAYERS

 HEAD WILL BE SAVED ON UNIT   51 AT END OF TIME STEP    1, STRESS PERIOD   62
1
  VOLUMETRIC BUDGET FOR ENTIRE MODEL AT END OF TIME STEP    1, STRESS PERIOD  62
  ------------------------------------------------------------------------------

     CUMULATIVE VOLUMES      L**3       RATES FOR THIS TIME STEP      L**3/T
     ------------------                 ------------------------

           IN:                                      IN:
           ---                                      ---
             STORAGE =         451.3296               STORAGE =           2.2737
       CONSTANT HEAD =           0.0000         CONSTANT HEAD =           0.0000
       RIVER LEAKAGE =           0.0000         RIVER LEAKAGE =           0.0000
            RECHARGE =        1283.0000              RECHARGE =          22.0000

            TOTAL IN =        1734.3296              TOTAL IN =          24.2737

          OUT:                                     OUT:
          ----                                     ----
             STORAGE =        1028.8021               STORAGE =           9.4332
       CONSTANT HEAD =         204.1228         CONSTANT HEAD =           3.3530
       RIVER LEAKAGE =         375.4041         RIVER LEAKAGE =          11.4874
            RECHARGE =         126.0000              RECHARGE =           0.0000

           TOTAL OUT =        1734.3291             TOTAL OUT =          24.2736

            IN - OUT =       4.8828E-04              IN - OUT =       1.3733E-04

 PERCENT DISCREPANCY =           0.00     PERCENT DISCREPANCY =           0.00






         TIME SUMMARY AT END OF TIME STEP    1 IN STRESS PERIOD   62
                    SECONDS     MINUTES      HOURS       DAYS        YEARS
                    -----------------------------------------------------------
   TIME STEP LENGTH  86400.      1440.0      24.000      1.0000     2.73785E-03
 STRESS PERIOD TIME  86400.      1440.0      24.000      1.0000     2.73785E-03
         TOTAL TIME 5.35680E+06  89280.      1488.0      62.000     0.16975    
1
1
                            STRESS PERIOD NO.   63, LENGTH =   1.000000    
                            -----------------------------------------------

                              NUMBER OF TIME STEPS =     1

                               MULTIPLIER FOR DELT =     1.000

                            INITIAL TIME STEP SIZE =   1.000000    

 REUSING NON-PARAMETER RIVER REACHES FROM LAST STRESS PERIOD

      2 RIVER REACHES

                 RECHARGE =  2.700000E-03
 
 SOLVING FOR HEAD 

 OUTPUT CONTROL FOR STRESS PERIOD   63   TIME STEP    1
    SAVE HEAD FOR ALL LAYERS

 HEAD WILL BE SAVED ON UNIT   51 AT END OF TIME STEP    1, STRESS PERIOD   63
1
  VOLUMETRIC BUDGET FOR ENTIRE MODEL AT END OF TIME STEP    1, STRESS PERIOD  63
  ------------------------------------------------------------------------------

     CUMULATIVE VOLUMES      L**3       RATES FOR THIS TIME STEP      L**3/T
     ------------------                 ------------------------

           IN:                                      IN:
           ---                                      ---
             STORAGE =         452.1163               STORAGE =           0.7867
       CONSTANT HEAD =           0.0000         CONSTANT HEAD =           0.0000
       RIVER LEAKAGE =           0.0000         RIVER LEAKAGE =           0.0000
            RECHARGE =        1310.0000              RECHARGE =          27.0000

            TOTAL IN =        1762.1162              TOTAL IN =          27.7867

          OUT:                                     OUT:
          ----                                     ----
             STORAGE =        1042.1372               STORAGE =          13.3351
       CONSTANT HEAD =         207.4807         CONSTANT HEAD =           3.3578
       RIVER LEAKAGE =         386.4979         RIVER LEAKAGE =          11.0938
            RECHARGE =         126.0000              RECHARGE =           0.0000

           TOTAL OUT =        1762.1158             TOTAL OUT =          27.7867

            IN - OUT =       3.6621E-04              IN - OUT =       3.2425E-05

 PERCENT DISCREPANCY =           0.00     PERCENT DISCREPANCY =           0.00






         TIME SUMMARY AT END OF TIME STEP    1 IN STRESS PERIOD   63
                    SECONDS     MINUTES      HOURS       DAYS        YEARS
                    -----------------------------------------------------------
   TIME STEP LENGTH  86400.      1440.0      24.000      1.0000     2.73785E-03
 STRESS PERIOD TIME  86400.      1440.0      24.000      1.0000     2.73785E-03
         TOTAL TIME 5.44320E+06  90720.      1512.0      63.000     0.17248    
1
1
                            STRESS PERIOD NO.   64, LENGTH =   1.000000    
                            -----------------------------------------------

                              NUMBER OF TIME STEPS =     1

                               MULTIPLIER FOR DELT =     1.000

                            INITIAL TIME STEP SIZE =   1.000000    

 REUSING NON-PARAMETER RIVER REACHES FROM LAST STRESS PERIOD

      2 RIVER REACHES

                 RECHARGE =  8.000000E-03
 
 SOLVING FOR HEAD 

 OUTPUT CONTROL FOR STRESS PERIOD   64   TIME STEP    1
    SAVE HEAD FOR ALL LAYERS

 HEAD WILL BE SAVED ON UNIT   51 AT END OF TIME STEP    1, STRESS PERIOD   64
1
  VOLUMETRIC BUDGET FOR ENTIRE MODEL AT END OF TIME STEP    1, STRESS PERIOD  64
  ------------------------------------------------------------------------------

     CUMULATIVE VOLUMES      L**3       RATES FOR THIS TIME STEP      L**3/T
     ------------------                 ------------------------

           IN:                                      IN:
           ---                                      ---
             STORAGE =         452.1163               STORAGE =           0.0000
       CONSTANT HEAD =           0.0000         CONSTANT HEAD =           0.0000
       RIVER LEAKAGE =           0.0000         RIVER LEAKAGE =           0.0000
            RECHARGE =        1390.0000              RECHARGE =          80.0000

            TOTAL IN =        1842.1162              TOTAL IN =          80.0000

          OUT:                                     OUT:
          ----                                     ----
             STORAGE =        1105.9905               STORAGE =          63.8532
       CONSTANT HEAD =         210.8450         CONSTANT HEAD =           3.3643
       RIVER LEAKAGE =         399.2802         RIVER LEAKAGE =          12.7823
            RECHARGE =         126.0000              RECHARGE =           0.0000

           TOTAL OUT =        1842.1157             TOTAL OUT =          79.9999

            IN - OUT =       4.8828E-04              IN - OUT =       1.4496E-04

 PERCENT DISCREPANCY =           0.00     PERCENT DISCREPANCY =           0.00






         TIME SUMMARY AT END OF TIME STEP    1 IN STRESS PERIOD   64
                    SECONDS     MINUTES      HOURS       DAYS        YEARS
                    -----------------------------------------------------------
   TIME STEP LENGTH  86400.      1440.0      24.000      1.0000     2.73785E-03
 STRESS PERIOD TIME  86400.      1440.0      24.000      1.0000     2.73785E-03
         TOTAL TIME 5.52960E+06  92160.      1536.0      64.000     0.17522    
1
1
                            STRESS PERIOD NO.   65, LENGTH =   1.000000    
                            -----------------------------------------------

                              NUMBER OF TIME STEPS =     1

                               MULTIPLIER FOR DELT =     1.000

                            INITIAL TIME STEP SIZE =   1.000000    

 REUSING NON-PARAMETER RIVER REACHES FROM LAST STRESS PERIOD

      2 RIVER REACHES

                 RECHARGE =  5.000000E-04
 
 SOLVING FOR HEAD 

 OUTPUT CONTROL FOR STRESS PERIOD   65   TIME STEP    1
    SAVE HEAD FOR ALL LAYERS

 HEAD WILL BE SAVED ON UNIT   51 AT END OF TIME STEP    1, STRESS PERIOD   65
1
  VOLUMETRIC BUDGET FOR ENTIRE MODEL AT END OF TIME STEP    1, STRESS PERIOD  65
  ------------------------------------------------------------------------------

     CUMULATIVE VOLUMES      L**3       RATES FOR THIS TIME STEP      L**3/T
     ------------------                 ------------------------

           IN:                                      IN:
           ---                                      ---
             STORAGE =         462.0011               STORAGE =           9.8848
       CONSTANT HEAD =           0.0000         CONSTANT HEAD =           0.0000
       RIVER LEAKAGE =           0.0000         RIVER LEAKAGE =           0.0000
            RECHARGE =        1395.0000              RECHARGE =           5.0000

            TOTAL IN =        1857.0011              TOTAL IN =          14.8848

          OUT:                                     OUT:
          ----                                     ----
             STORAGE =        1106.2966               STORAGE =           0.3061
       CONSTANT HEAD =         214.2139         CONSTANT HEAD =           3.3689
       RIVER LEAKAGE =         410.4901         RIVER LEAKAGE =          11.2099
            RECHARGE =         126.0000              RECHARGE =           0.0000

           TOTAL OUT =        1857.0006             TOTAL OUT =          14.8849

            IN - OUT =       4.8828E-04              IN - OUT =      -1.0681E-04

 PERCENT DISCREPANCY =           0.00     PERCENT DISCREPANCY =          -0.00






         TIME SUMMARY AT END OF TIME STEP    1 IN STRESS PERIOD   65
                    SECONDS     MINUTES      HOURS       DAYS        YEARS
                    -----------------------------------------------------------
   TIME STEP LENGTH  86400.      1440.0      24.000      1.0000     2.73785E-03
 STRESS PERIOD TIME  86400.      1440.0      24.000      1.0000     2.73785E-03
         TOTAL TIME 5.61600E+06  93600.      1560.0      65.000     0.17796    
1
1
                            STRESS PERIOD NO.   66, LENGTH =   1.000000    
                            -----------------------------------------------

                              NUMBER OF TIME STEPS =     1

                               MULTIPLIER FOR DELT =     1.000

                            INITIAL TIME STEP SIZE =   1.000000    

 REUSING NON-PARAMETER RIVER REACHES FROM LAST STRESS PERIOD

      2 RIVER REACHES

                 RECHARGE =  5.400000E-03
 
 SOLVING FOR HEAD 

 OUTPUT CONTROL FOR STRESS PERIOD   66   TIME STEP    1
    SAVE HEAD FOR ALL LAYERS

 HEAD WILL BE SAVED ON UNIT   51 AT END OF TIME STEP    1, STRESS PERIOD   66
1
  VOLUMETRIC BUDGET FOR ENTIRE MODEL AT END OF TIME STEP    1, STRESS PERIOD  66
  ------------------------------------------------------------------------------

     CUMULATIVE VOLUMES      L**3       RATES FOR THIS TIME STEP      L**3/T
     ------------------                 ------------------------

           IN:                                      IN:
           ---                                      ---
             STORAGE =         462.0011               STORAGE =           0.0000
       CONSTANT HEAD =           0.0000         CONSTANT HEAD =           0.0000
       RIVER LEAKAGE =           0.0000         RIVER LEAKAGE =           0.0000
            RECHARGE =        1449.0000              RECHARGE =          54.0000

            TOTAL IN =        1911.0011              TOTAL IN =          54.0000

          OUT:                                     OUT:
          ----                                     ----
             STORAGE =        1144.7703               STORAGE =          38.4736
       CONSTANT HEAD =         217.5886         CONSTANT HEAD =           3.3747
       RIVER LEAKAGE =         422.6417         RIVER LEAKAGE =          12.1516
            RECHARGE =         126.0000              RECHARGE =           0.0000

           TOTAL OUT =        1911.0006             TOTAL OUT =          53.9999

            IN - OUT =       4.8828E-04              IN - OUT =       1.2589E-04

 PERCENT DISCREPANCY =           0.00     PERCENT DISCREPANCY =           0.00






         TIME SUMMARY AT END OF TIME STEP    1 IN STRESS PERIOD   66
                    SECONDS     MINUTES      HOURS       DAYS        YEARS
                    -----------------------------------------------------------
   TIME STEP LENGTH  86400.      1440.0      24.000      1.0000     2.73785E-03
 STRESS PERIOD TIME  86400.      1440.0      24.000      1.0000     2.73785E-03
         TOTAL TIME 5.70240E+06  95040.      1584.0      66.000     0.18070    
1
1
                            STRESS PERIOD NO.   67, LENGTH =   1.000000    
                            -----------------------------------------------

                              NUMBER OF TIME STEPS =     1

                               MULTIPLIER FOR DELT =     1.000

                            INITIAL TIME STEP SIZE =   1.000000    

 REUSING NON-PARAMETER RIVER REACHES FROM LAST STRESS PERIOD

      2 RIVER REACHES

                 RECHARGE =  2.800000E-03
 
 SOLVING FOR HEAD 

 OUTPUT CONTROL FOR STRESS PERIOD   67   TIME STEP    1
    SAVE HEAD FOR ALL LAYERS

 HEAD WILL BE SAVED ON UNIT   51 AT END OF TIME STEP    1, STRESS PERIOD   67
1
  VOLUMETRIC BUDGET FOR ENTIRE MODEL AT END OF TIME STEP    1, STRESS PERIOD  67
  ------------------------------------------------------------------------------

     CUMULATIVE VOLUMES      L**3       RATES FOR THIS TIME STEP      L**3/T
     ------------------                 ------------------------

           IN:                                      IN:
           ---                                      ---
             STORAGE =         462.5038               STORAGE =           0.5028
       CONSTANT HEAD =           0.0000         CONSTANT HEAD =           0.0000
       RIVER LEAKAGE =           0.0000         RIVER LEAKAGE =           0.0000
            RECHARGE =        1477.0000              RECHARGE =          28.0000

            TOTAL IN =        1939.5039              TOTAL IN =          28.5028

          OUT:                                     OUT:
          ----                                     ----
             STORAGE =        1158.1063               STORAGE =          13.3360
       CONSTANT HEAD =         220.9685         CONSTANT HEAD =           3.3799
       RIVER LEAKAGE =         434.4284         RIVER LEAKAGE =          11.7868
            RECHARGE =         126.0000              RECHARGE =           0.0000

           TOTAL OUT =        1939.5033             TOTAL OUT =          28.5026

            IN - OUT =       6.1035E-04              IN - OUT =       1.1063E-04

 PERCENT DISCREPANCY =           0.00     PERCENT DISCREPANCY =           0.00






         TIME SUMMARY AT END OF TIME STEP    1 IN STRESS PERIOD   67
                    SECONDS     MINUTES      HOURS       DAYS        YEARS
                    -----------------------------------------------------------
   TIME STEP LENGTH  86400.      1440.0      24.000      1.0000     2.73785E-03
 STRESS PERIOD TIME  86400.      1440.0      24.000      1.0000     2.73785E-03
         TOTAL TIME 5.78880E+06  96480.      1608.0      67.000     0.18344    
1
1
                            STRESS PERIOD NO.   68, LENGTH =   1.000000    
                            -----------------------------------------------

                              NUMBER OF TIME STEPS =     1

                               MULTIPLIER FOR DELT =     1.000

                            INITIAL TIME STEP SIZE =   1.000000    

 REUSING NON-PARAMETER RIVER REACHES FROM LAST STRESS PERIOD

      2 RIVER REACHES

                 RECHARGE =  1.300000E-03
 
 SOLVING FOR HEAD 

 OUTPUT CONTROL FOR STRESS PERIOD   68   TIME STEP    1
    SAVE HEAD FOR ALL LAYERS

 HEAD WILL BE SAVED ON UNIT   51 AT END OF TIME STEP    1, STRESS PERIOD   68
1
  VOLUMETRIC BUDGET FOR ENTIRE MODEL AT END OF TIME STEP    1, STRESS PERIOD  68
  ------------------------------------------------------------------------------

     CUMULATIVE VOLUMES      L**3       RATES FOR THIS TIME STEP      L**3/T
     ------------------                 ------------------------

           IN:                                      IN:
           ---                                      ---
             STORAGE =         466.1804               STORAGE =           3.6765
       CONSTANT HEAD =           0.0000         CONSTANT HEAD =           0.0000
       RIVER LEAKAGE =           0.0000         RIVER LEAKAGE =           0.0000
            RECHARGE =        1490.0000              RECHARGE =          13.0000

            TOTAL IN =        1956.1804              TOTAL IN =          16.6765

          OUT:                                     OUT:
          ----                                     ----
             STORAGE =        1160.2775               STORAGE =           2.1711
       CONSTANT HEAD =         224.3529         CONSTANT HEAD =           3.3844
       RIVER LEAKAGE =         445.5495         RIVER LEAKAGE =          11.1210
            RECHARGE =         126.0000              RECHARGE =           0.0000

           TOTAL OUT =        1956.1798             TOTAL OUT =          16.6766

            IN - OUT =       6.1035E-04              IN - OUT =      -3.8147E-05

 PERCENT DISCREPANCY =           0.00     PERCENT DISCREPANCY =          -0.00






         TIME SUMMARY AT END OF TIME STEP    1 IN STRESS PERIOD   68
                    SECONDS     MINUTES      HOURS       DAYS        YEARS
                    -----------------------------------------------------------
   TIME STEP LENGTH  86400.      1440.0      24.000      1.0000     2.73785E-03
 STRESS PERIOD TIME  86400.      1440.0      24.000      1.0000     2.73785E-03
         TOTAL TIME 5.87520E+06  97920.      1632.0      68.000     0.18617    
1
1
                            STRESS PERIOD NO.   69, LENGTH =   1.000000    
                            -----------------------------------------------

                              NUMBER OF TIME STEPS =     1

                               MULTIPLIER FOR DELT =     1.000

                            INITIAL TIME STEP SIZE =   1.000000    

 REUSING NON-PARAMETER RIVER REACHES FROM LAST STRESS PERIOD

      2 RIVER REACHES

                 RECHARGE = -6.000000E-04
 
 SOLVING FOR HEAD 

 OUTPUT CONTROL FOR STRESS PERIOD   69   TIME STEP    1
    SAVE HEAD FOR ALL LAYERS

 HEAD WILL BE SAVED ON UNIT   51 AT END OF TIME STEP    1, STRESS PERIOD   69
1
  VOLUMETRIC BUDGET FOR ENTIRE MODEL AT END OF TIME STEP    1, STRESS PERIOD  69
  ------------------------------------------------------------------------------

     CUMULATIVE VOLUMES      L**3       RATES FOR THIS TIME STEP      L**3/T
     ------------------                 ------------------------

           IN:                                      IN:
           ---                                      ---
             STORAGE =         485.9304               STORAGE =          19.7500
       CONSTANT HEAD =           0.0000         CONSTANT HEAD =           0.0000
       RIVER LEAKAGE =           0.0000         RIVER LEAKAGE =           0.0000
            RECHARGE =        1490.0000              RECHARGE =           0.0000

            TOTAL IN =        1975.9304              TOTAL IN =          19.7500

          OUT:                                     OUT:
          ----                                     ----
             STORAGE =        1160.5830               STORAGE =           0.3056
       CONSTANT HEAD =         227.7410         CONSTANT HEAD =           3.3880
       RIVER LEAKAGE =         455.6057         RIVER LEAKAGE =          10.0563
            RECHARGE =         132.0000              RECHARGE =           6.0000

           TOTAL OUT =        1975.9297             TOTAL OUT =          19.7499

            IN - OUT =       7.3242E-04              IN - OUT =       7.6294E-05

 PERCENT DISCREPANCY =           0.00     PERCENT DISCREPANCY =           0.00






         TIME SUMMARY AT END OF TIME STEP    1 IN STRESS PERIOD   69
                    SECONDS     MINUTES      HOURS       DAYS        YEARS
                    -----------------------------------------------------------
   TIME STEP LENGTH  86400.      1440.0      24.000      1.0000     2.73785E-03
 STRESS PERIOD TIME  86400.      1440.0      24.000      1.0000     2.73785E-03
         TOTAL TIME 5.96160E+06  99360.      1656.0      69.000     0.18891    
1
1
                            STRESS PERIOD NO.   70, LENGTH =   1.000000    
                            -----------------------------------------------

                              NUMBER OF TIME STEPS =     1

                               MULTIPLIER FOR DELT =     1.000

                            INITIAL TIME STEP SIZE =   1.000000    

 REUSING NON-PARAMETER RIVER REACHES FROM LAST STRESS PERIOD

      2 RIVER REACHES

                 RECHARGE =  1.350000E-02
 
 SOLVING FOR HEAD 

 OUTPUT CONTROL FOR STRESS PERIOD   70   TIME STEP    1
    SAVE HEAD FOR ALL LAYERS

 HEAD WILL BE SAVED ON UNIT   51 AT END OF TIME STEP    1, STRESS PERIOD   70
1
  VOLUMETRIC BUDGET FOR ENTIRE MODEL AT END OF TIME STEP    1, STRESS PERIOD  70
  ------------------------------------------------------------------------------

     CUMULATIVE VOLUMES      L**3       RATES FOR THIS TIME STEP      L**3/T
     ------------------                 ------------------------

           IN:                                      IN:
           ---                                      ---
             STORAGE =         485.9304               STORAGE =           0.0000
       CONSTANT HEAD =           0.0000         CONSTANT HEAD =           0.0000
       RIVER LEAKAGE =           0.0000         RIVER LEAKAGE =           0.0000
            RECHARGE =        1625.0000              RECHARGE =         135.0000

            TOTAL IN =        2110.9304              TOTAL IN =         135.0000

          OUT:                                     OUT:
          ----                                     ----
             STORAGE =        1277.8364               STORAGE =         117.2534
       CONSTANT HEAD =         231.1370         CONSTANT HEAD =           3.3961
       RIVER LEAKAGE =         469.9565         RIVER LEAKAGE =          14.3507
            RECHARGE =         132.0000              RECHARGE =           0.0000

           TOTAL OUT =        2110.9299             TOTAL OUT =         135.0002

            IN - OUT =       4.8828E-04              IN - OUT =      -2.2888E-04

 PERCENT DISCREPANCY =           0.00     PERCENT DISCREPANCY =          -0.00






         TIME SUMMARY AT END OF TIME STEP    1 IN STRESS PERIOD   70
                    SECONDS     MINUTES      HOURS       DAYS        YEARS
                    -----------------------------------------------------------
   TIME STEP LENGTH  86400.      1440.0      24.000      1.0000     2.73785E-03
 STRESS PERIOD TIME  86400.      1440.0      24.000      1.0000     2.73785E-03
         TOTAL TIME 6.04800E+06 1.00800E+05  1680.0      70.000     0.19165    
1
1
                            STRESS PERIOD NO.   71, LENGTH =   1.000000    
                            -----------------------------------------------

                              NUMBER OF TIME STEPS =     1

                               MULTIPLIER FOR DELT =     1.000

                            INITIAL TIME STEP SIZE =   1.000000    

 REUSING NON-PARAMETER RIVER REACHES FROM LAST STRESS PERIOD

      2 RIVER REACHES

                 RECHARGE = -8.000000E-04
 
 SOLVING FOR HEAD 

 OUTPUT CONTROL FOR STRESS PERIOD   71   TIME STEP    1
    SAVE HEAD FOR ALL LAYERS

 HEAD WILL BE SAVED ON UNIT   51 AT END OF TIME STEP    1, STRESS PERIOD   71
1
  VOLUMETRIC BUDGET FOR ENTIRE MODEL AT END OF TIME STEP    1, STRESS PERIOD  71
  ------------------------------------------------------------------------------

     CUMULATIVE VOLUMES      L**3       RATES FOR THIS TIME STEP      L**3/T
     ------------------                 ------------------------

           IN:                                      IN:
           ---                                      ---
             STORAGE =         509.5601               STORAGE =          23.6297
       CONSTANT HEAD =           0.0000         CONSTANT HEAD =           0.0000
       RIVER LEAKAGE =           0.0000         RIVER LEAKAGE =           0.0000
            RECHARGE =        1625.0000              RECHARGE =           0.0000

            TOTAL IN =        2134.5601              TOTAL IN =          23.6297

          OUT:                                     OUT:
          ----                                     ----
             STORAGE =        1278.1908               STORAGE =           0.3544
       CONSTANT HEAD =         234.5379         CONSTANT HEAD =           3.4009
       RIVER LEAKAGE =         481.8310         RIVER LEAKAGE =          11.8746
            RECHARGE =         140.0000              RECHARGE =           8.0000

           TOTAL OUT =        2134.5598             TOTAL OUT =          23.6299

            IN - OUT =       2.4414E-04              IN - OUT =      -1.2016E-04

 PERCENT DISCREPANCY =           0.00     PERCENT DISCREPANCY =          -0.00






         TIME SUMMARY AT END OF TIME STEP    1 IN STRESS PERIOD   71
                    SECONDS     MINUTES      HOURS       DAYS        YEARS
                    -----------------------------------------------------------
   TIME STEP LENGTH  86400.      1440.0      24.000      1.0000     2.73785E-03
 STRESS PERIOD TIME  86400.      1440.0      24.000      1.0000     2.73785E-03
         TOTAL TIME 6.13440E+06 1.02240E+05  1704.0      71.000     0.19439    
1
1
                            STRESS PERIOD NO.   72, LENGTH =   1.000000    
                            -----------------------------------------------

                              NUMBER OF TIME STEPS =     1

                               MULTIPLIER FOR DELT =     1.000

                            INITIAL TIME STEP SIZE =   1.000000    

 REUSING NON-PARAMETER RIVER REACHES FROM LAST STRESS PERIOD

      2 RIVER REACHES

                 RECHARGE = -1.600000E-03
 
 SOLVING FOR HEAD 

 OUTPUT CONTROL FOR STRESS PERIOD   72   TIME STEP    1
    SAVE HEAD FOR ALL LAYERS

 HEAD WILL BE SAVED ON UNIT   51 AT END OF TIME STEP    1, STRESS PERIOD   72
1
  VOLUMETRIC BUDGET FOR ENTIRE MODEL AT END OF TIME STEP    1, STRESS PERIOD  72
  ------------------------------------------------------------------------------

     CUMULATIVE VOLUMES      L**3       RATES FOR THIS TIME STEP      L**3/T
     ------------------                 ------------------------

           IN:                                      IN:
           ---                                      ---
             STORAGE =         539.6914               STORAGE =          30.1313
       CONSTANT HEAD =           0.0000         CONSTANT HEAD =           0.0000
       RIVER LEAKAGE =           0.0000         RIVER LEAKAGE =           0.0000
            RECHARGE =        1625.0000              RECHARGE =           0.0000

            TOTAL IN =        2164.6914              TOTAL IN =          30.1313

          OUT:                                     OUT:
          ----                                     ----
             STORAGE =        1278.5212               STORAGE =           0.3304
       CONSTANT HEAD =         237.9425         CONSTANT HEAD =           3.4046
       RIVER LEAKAGE =         492.2275         RIVER LEAKAGE =          10.3965
            RECHARGE =         156.0000              RECHARGE =          16.0000

           TOTAL OUT =        2164.6914             TOTAL OUT =          30.1315

            IN - OUT =           0.0000              IN - OUT =      -2.1553E-04

 PERCENT DISCREPANCY =           0.00     PERCENT DISCREPANCY =          -0.00






         TIME SUMMARY AT END OF TIME STEP    1 IN STRESS PERIOD   72
                    SECONDS     MINUTES      HOURS       DAYS        YEARS
                    -----------------------------------------------------------
   TIME STEP LENGTH  86400.      1440.0      24.000      1.0000     2.73785E-03
 STRESS PERIOD TIME  86400.      1440.0      24.000      1.0000     2.73785E-03
         TOTAL TIME 6.22080E+06 1.03680E+05  1728.0      72.000     0.19713    
1
1
                            STRESS PERIOD NO.   73, LENGTH =   1.000000    
                            -----------------------------------------------

                              NUMBER OF TIME STEPS =     1

                               MULTIPLIER FOR DELT =     1.000

                            INITIAL TIME STEP SIZE =   1.000000    

 REUSING NON-PARAMETER RIVER REACHES FROM LAST STRESS PERIOD

      2 RIVER REACHES

                 RECHARGE = -1.200000E-03
 
 SOLVING FOR HEAD 

 OUTPUT CONTROL FOR STRESS PERIOD   73   TIME STEP    1
    SAVE HEAD FOR ALL LAYERS

 HEAD WILL BE SAVED ON UNIT   51 AT END OF TIME STEP    1, STRESS PERIOD   73
1
  VOLUMETRIC BUDGET FOR ENTIRE MODEL AT END OF TIME STEP    1, STRESS PERIOD  73
  ------------------------------------------------------------------------------

     CUMULATIVE VOLUMES      L**3       RATES FOR THIS TIME STEP      L**3/T
     ------------------                 ------------------------

           IN:                                      IN:
           ---                                      ---
             STORAGE =         564.9663               STORAGE =          25.2749
       CONSTANT HEAD =           0.0000         CONSTANT HEAD =           0.0000
       RIVER LEAKAGE =           0.0000         RIVER LEAKAGE =           0.0000
            RECHARGE =        1625.0000              RECHARGE =           0.0000

            TOTAL IN =        2189.9663              TOTAL IN =          25.2749

          OUT:                                     OUT:
          ----                                     ----
             STORAGE =        1278.8315               STORAGE =           0.3103
       CONSTANT HEAD =         241.3502         CONSTANT HEAD =           3.4077
       RIVER LEAKAGE =         501.7844         RIVER LEAKAGE =           9.5569
            RECHARGE =         168.0000              RECHARGE =          12.0000

           TOTAL OUT =        2189.9663             TOTAL OUT =          25.2749

            IN - OUT =           0.0000              IN - OUT =       4.5776E-05

 PERCENT DISCREPANCY =           0.00     PERCENT DISCREPANCY =           0.00






         TIME SUMMARY AT END OF TIME STEP    1 IN STRESS PERIOD   73
                    SECONDS     MINUTES      HOURS       DAYS        YEARS
                    -----------------------------------------------------------
   TIME STEP LENGTH  86400.      1440.0      24.000      1.0000     2.73785E-03
 STRESS PERIOD TIME  86400.      1440.0      24.000      1.0000     2.73785E-03
         TOTAL TIME 6.30720E+06 1.05120E+05  1752.0      73.000     0.19986    
1
1
                            STRESS PERIOD NO.   74, LENGTH =   1.000000    
                            -----------------------------------------------

                              NUMBER OF TIME STEPS =     1

                               MULTIPLIER FOR DELT =     1.000

                            INITIAL TIME STEP SIZE =   1.000000    

 REUSING NON-PARAMETER RIVER REACHES FROM LAST STRESS PERIOD

      2 RIVER REACHES

                 RECHARGE = -1.900000E-03
 
 SOLVING FOR HEAD 

 OUTPUT CONTROL FOR STRESS PERIOD   74   TIME STEP    1
    SAVE HEAD FOR ALL LAYERS

 HEAD WILL BE SAVED ON UNIT   51 AT END OF TIME STEP    1, STRESS PERIOD   74
1
  VOLUMETRIC BUDGET FOR ENTIRE MODEL AT END OF TIME STEP    1, STRESS PERIOD  74
  ------------------------------------------------------------------------------

     CUMULATIVE VOLUMES      L**3       RATES FOR THIS TIME STEP      L**3/T
     ------------------                 ------------------------

           IN:                                      IN:
           ---                                      ---
             STORAGE =         596.3050               STORAGE =          31.3387
       CONSTANT HEAD =           0.0000         CONSTANT HEAD =           0.0000
       RIVER LEAKAGE =           0.0000         RIVER LEAKAGE =           0.0000
            RECHARGE =        1625.0000              RECHARGE =           0.0000

            TOTAL IN =        2221.3049              TOTAL IN =          31.3387

          OUT:                                     OUT:
          ----                                     ----
             STORAGE =        1279.1183               STORAGE =           0.2868
       CONSTANT HEAD =         244.7603         CONSTANT HEAD =           3.4101
       RIVER LEAKAGE =         510.4262         RIVER LEAKAGE =           8.6418
            RECHARGE =         187.0000              RECHARGE =          19.0000

           TOTAL OUT =        2221.3047             TOTAL OUT =          31.3386

            IN - OUT =       2.4414E-04              IN - OUT =       4.5776E-05

 PERCENT DISCREPANCY =           0.00     PERCENT DISCREPANCY =           0.00






         TIME SUMMARY AT END OF TIME STEP    1 IN STRESS PERIOD   74
                    SECONDS     MINUTES      HOURS       DAYS        YEARS
                    -----------------------------------------------------------
   TIME STEP LENGTH  86400.      1440.0      24.000      1.0000     2.73785E-03
 STRESS PERIOD TIME  86400.      1440.0      24.000      1.0000     2.73785E-03
         TOTAL TIME 6.39360E+06 1.06560E+05  1776.0      74.000     0.20260    
1
1
                            STRESS PERIOD NO.   75, LENGTH =   1.000000    
                            -----------------------------------------------

                              NUMBER OF TIME STEPS =     1

                               MULTIPLIER FOR DELT =     1.000

                            INITIAL TIME STEP SIZE =   1.000000    

 REUSING NON-PARAMETER RIVER REACHES FROM LAST STRESS PERIOD

      2 RIVER REACHES

                 RECHARGE = -1.500000E-03
 
 SOLVING FOR HEAD 

 OUTPUT CONTROL FOR STRESS PERIOD   75   TIME STEP    1
    SAVE HEAD FOR ALL LAYERS

 HEAD WILL BE SAVED ON UNIT   51 AT END OF TIME STEP    1, STRESS PERIOD   75
1
  VOLUMETRIC BUDGET FOR ENTIRE MODEL AT END OF TIME STEP    1, STRESS PERIOD  75
  ------------------------------------------------------------------------------

     CUMULATIVE VOLUMES      L**3       RATES FOR THIS TIME STEP      L**3/T
     ------------------                 ------------------------

           IN:                                      IN:
           ---                                      ---
             STORAGE =         623.0544               STORAGE =          26.7494
       CONSTANT HEAD =           0.0000         CONSTANT HEAD =           0.0000
       RIVER LEAKAGE =           0.0000         RIVER LEAKAGE =           0.0000
            RECHARGE =        1625.0000              RECHARGE =           0.0000

            TOTAL IN =        2248.0544              TOTAL IN =          26.7494

          OUT:                                     OUT:
          ----                                     ----
             STORAGE =        1279.3850               STORAGE =           0.2667
       CONSTANT HEAD =         248.1725         CONSTANT HEAD =           3.4122
       RIVER LEAKAGE =         518.4969         RIVER LEAKAGE =           8.0707
            RECHARGE =         202.0000              RECHARGE =          15.0000

           TOTAL OUT =        2248.0544             TOTAL OUT =          26.7496

            IN - OUT =           0.0000              IN - OUT =      -1.2207E-04

 PERCENT DISCREPANCY =           0.00     PERCENT DISCREPANCY =          -0.00






         TIME SUMMARY AT END OF TIME STEP    1 IN STRESS PERIOD   75
                    SECONDS     MINUTES      HOURS       DAYS        YEARS
                    -----------------------------------------------------------
   TIME STEP LENGTH  86400.      1440.0      24.000      1.0000     2.73785E-03
 STRESS PERIOD TIME  86400.      1440.0      24.000      1.0000     2.73785E-03
         TOTAL TIME 6.48000E+06 1.08000E+05  1800.0      75.000     0.20534    
1
1
                            STRESS PERIOD NO.   76, LENGTH =   1.000000    
                            -----------------------------------------------

                              NUMBER OF TIME STEPS =     1

                               MULTIPLIER FOR DELT =     1.000

                            INITIAL TIME STEP SIZE =   1.000000    

 REUSING NON-PARAMETER RIVER REACHES FROM LAST STRESS PERIOD

      2 RIVER REACHES

                 RECHARGE = -1.400000E-03
 
 SOLVING FOR HEAD 

 OUTPUT CONTROL FOR STRESS PERIOD   76   TIME STEP    1
    SAVE HEAD FOR ALL LAYERS

 HEAD WILL BE SAVED ON UNIT   51 AT END OF TIME STEP    1, STRESS PERIOD   76
1
  VOLUMETRIC BUDGET FOR ENTIRE MODEL AT END OF TIME STEP    1, STRESS PERIOD  76
  ------------------------------------------------------------------------------

     CUMULATIVE VOLUMES      L**3       RATES FOR THIS TIME STEP      L**3/T
     ------------------                 ------------------------

           IN:                                      IN:
           ---                                      ---
             STORAGE =         648.3087               STORAGE =          25.2542
       CONSTANT HEAD =           0.0000         CONSTANT HEAD =           0.0000
       RIVER LEAKAGE =           0.0000         RIVER LEAKAGE =           0.0000
            RECHARGE =        1625.0000              RECHARGE =           0.0000

            TOTAL IN =        2273.3086              TOTAL IN =          25.2542

          OUT:                                     OUT:
          ----                                     ----
             STORAGE =        1279.6329               STORAGE =           0.2479
       CONSTANT HEAD =         251.5864         CONSTANT HEAD =           3.4139
       RIVER LEAKAGE =         526.0894         RIVER LEAKAGE =           7.5924
            RECHARGE =         216.0000              RECHARGE =          14.0000

           TOTAL OUT =        2273.3086             TOTAL OUT =          25.2542

            IN - OUT =           0.0000              IN - OUT =      -9.5367E-06

 PERCENT DISCREPANCY =           0.00     PERCENT DISCREPANCY =          -0.00






         TIME SUMMARY AT END OF TIME STEP    1 IN STRESS PERIOD   76
                    SECONDS     MINUTES      HOURS       DAYS        YEARS
                    -----------------------------------------------------------
   TIME STEP LENGTH  86400.      1440.0      24.000      1.0000     2.73785E-03
 STRESS PERIOD TIME  86400.      1440.0      24.000      1.0000     2.73785E-03
         TOTAL TIME 6.56640E+06 1.09440E+05  1824.0      76.000     0.20808    
1
1
                            STRESS PERIOD NO.   77, LENGTH =   1.000000    
                            -----------------------------------------------

                              NUMBER OF TIME STEPS =     1

                               MULTIPLIER FOR DELT =     1.000

                            INITIAL TIME STEP SIZE =   1.000000    

 REUSING NON-PARAMETER RIVER REACHES FROM LAST STRESS PERIOD

      2 RIVER REACHES

                 RECHARGE = -1.900000E-03
 
 SOLVING FOR HEAD 

 OUTPUT CONTROL FOR STRESS PERIOD   77   TIME STEP    1
    SAVE HEAD FOR ALL LAYERS

 HEAD WILL BE SAVED ON UNIT   51 AT END OF TIME STEP    1, STRESS PERIOD   77
1
  VOLUMETRIC BUDGET FOR ENTIRE MODEL AT END OF TIME STEP    1, STRESS PERIOD  77
  ------------------------------------------------------------------------------

     CUMULATIVE VOLUMES      L**3       RATES FOR THIS TIME STEP      L**3/T
     ------------------                 ------------------------

           IN:                                      IN:
           ---                                      ---
             STORAGE =         677.9294               STORAGE =          29.6207
       CONSTANT HEAD =           0.0000         CONSTANT HEAD =           0.0000
       RIVER LEAKAGE =           0.0000         RIVER LEAKAGE =           0.0000
            RECHARGE =        1625.0000              RECHARGE =           0.0000

            TOTAL IN =        2302.9294              TOTAL IN =          29.6207

          OUT:                                     OUT:
          ----                                     ----
             STORAGE =        1279.8596               STORAGE =           0.2267
       CONSTANT HEAD =         255.0016         CONSTANT HEAD =           3.4152
       RIVER LEAKAGE =         533.0681         RIVER LEAKAGE =           6.9787
            RECHARGE =         235.0000              RECHARGE =          19.0000

           TOTAL OUT =        2302.9292             TOTAL OUT =          29.6207

            IN - OUT =       2.4414E-04              IN - OUT =       6.6757E-05

 PERCENT DISCREPANCY =           0.00     PERCENT DISCREPANCY =           0.00






         TIME SUMMARY AT END OF TIME STEP    1 IN STRESS PERIOD   77
                    SECONDS     MINUTES      HOURS       DAYS        YEARS
                    -----------------------------------------------------------
   TIME STEP LENGTH  86400.      1440.0      24.000      1.0000     2.73785E-03
 STRESS PERIOD TIME  86400.      1440.0      24.000      1.0000     2.73785E-03
         TOTAL TIME 6.65280E+06 1.10880E+05  1848.0      77.000     0.21081    
1
1
                            STRESS PERIOD NO.   78, LENGTH =   1.000000    
                            -----------------------------------------------

                              NUMBER OF TIME STEPS =     1

                               MULTIPLIER FOR DELT =     1.000

                            INITIAL TIME STEP SIZE =   1.000000    

 REUSING NON-PARAMETER RIVER REACHES FROM LAST STRESS PERIOD

      2 RIVER REACHES

                 RECHARGE = -2.100000E-03
 
 SOLVING FOR HEAD 

 OUTPUT CONTROL FOR STRESS PERIOD   78   TIME STEP    1
    SAVE HEAD FOR ALL LAYERS

 HEAD WILL BE SAVED ON UNIT   51 AT END OF TIME STEP    1, STRESS PERIOD   78
1
  VOLUMETRIC BUDGET FOR ENTIRE MODEL AT END OF TIME STEP    1, STRESS PERIOD  78
  ------------------------------------------------------------------------------

     CUMULATIVE VOLUMES      L**3       RATES FOR THIS TIME STEP      L**3/T
     ------------------                 ------------------------

           IN:                                      IN:
           ---                                      ---
             STORAGE =         708.9495               STORAGE =          31.0202
       CONSTANT HEAD =           0.0000         CONSTANT HEAD =           0.0000
       RIVER LEAKAGE =           0.0000         RIVER LEAKAGE =           0.0000
            RECHARGE =        1625.0000              RECHARGE =           0.0000

            TOTAL IN =        2333.9495              TOTAL IN =          31.0202

          OUT:                                     OUT:
          ----                                     ----
             STORAGE =        1280.0646               STORAGE =           0.2050
       CONSTANT HEAD =         258.4178         CONSTANT HEAD =           3.4161
       RIVER LEAKAGE =         539.4672         RIVER LEAKAGE =           6.3991
            RECHARGE =         256.0000              RECHARGE =          21.0000

           TOTAL OUT =        2333.9495             TOTAL OUT =          31.0202

            IN - OUT =           0.0000              IN - OUT =      -7.8201E-05

 PERCENT DISCREPANCY =           0.00     PERCENT DISCREPANCY =          -0.00






         TIME SUMMARY AT END OF TIME STEP    1 IN STRESS PERIOD   78
                    SECONDS     MINUTES      HOURS       DAYS        YEARS
                    -----------------------------------------------------------
   TIME STEP LENGTH  86400.      1440.0      24.000      1.0000     2.73785E-03
 STRESS PERIOD TIME  86400.      1440.0      24.000      1.0000     2.73785E-03
         TOTAL TIME 6.73920E+06 1.12320E+05  1872.0      78.000     0.21355    
1
1
                            STRESS PERIOD NO.   79, LENGTH =   1.000000    
                            -----------------------------------------------

                              NUMBER OF TIME STEPS =     1

                               MULTIPLIER FOR DELT =     1.000

                            INITIAL TIME STEP SIZE =   1.000000    

 REUSING NON-PARAMETER RIVER REACHES FROM LAST STRESS PERIOD

      2 RIVER REACHES

                 RECHARGE =  4.500000E-03
 
 SOLVING FOR HEAD 

 OUTPUT CONTROL FOR STRESS PERIOD   79   TIME STEP    1
    SAVE HEAD FOR ALL LAYERS

 HEAD WILL BE SAVED ON UNIT   51 AT END OF TIME STEP    1, STRESS PERIOD   79
1
  VOLUMETRIC BUDGET FOR ENTIRE MODEL AT END OF TIME STEP    1, STRESS PERIOD  79
  ------------------------------------------------------------------------------

     CUMULATIVE VOLUMES      L**3       RATES FOR THIS TIME STEP      L**3/T
     ------------------                 ------------------------

           IN:                                      IN:
           ---                                      ---
             STORAGE =         708.9495               STORAGE =           0.0000
       CONSTANT HEAD =           0.0000         CONSTANT HEAD =           0.0000
       RIVER LEAKAGE =           0.0000         RIVER LEAKAGE =           0.0000
            RECHARGE =        1670.0000              RECHARGE =          45.0000

            TOTAL IN =        2378.9495              TOTAL IN =          45.0000

          OUT:                                     OUT:
          ----                                     ----
             STORAGE =        1313.4163               STORAGE =          33.3517
       CONSTANT HEAD =         261.8368         CONSTANT HEAD =           3.4190
       RIVER LEAKAGE =         547.6966         RIVER LEAKAGE =           8.2294
            RECHARGE =         256.0000              RECHARGE =           0.0000

           TOTAL OUT =        2378.9497             TOTAL OUT =          45.0001

            IN - OUT =      -2.4414E-04              IN - OUT =      -1.2970E-04

 PERCENT DISCREPANCY =          -0.00     PERCENT DISCREPANCY =          -0.00






         TIME SUMMARY AT END OF TIME STEP    1 IN STRESS PERIOD   79
                    SECONDS     MINUTES      HOURS       DAYS        YEARS
                    -----------------------------------------------------------
   TIME STEP LENGTH  86400.      1440.0      24.000      1.0000     2.73785E-03
 STRESS PERIOD TIME  86400.      1440.0      24.000      1.0000     2.73785E-03
         TOTAL TIME 6.82560E+06 1.13760E+05  1896.0      79.000     0.21629    
1
1
                            STRESS PERIOD NO.   80, LENGTH =   1.000000    
                            -----------------------------------------------

                              NUMBER OF TIME STEPS =     1

                               MULTIPLIER FOR DELT =     1.000

                            INITIAL TIME STEP SIZE =   1.000000    

 REUSING NON-PARAMETER RIVER REACHES FROM LAST STRESS PERIOD

      2 RIVER REACHES

                 RECHARGE =  5.800000E-03
 
 SOLVING FOR HEAD 

 OUTPUT CONTROL FOR STRESS PERIOD   80   TIME STEP    1
    SAVE HEAD FOR ALL LAYERS

 HEAD WILL BE SAVED ON UNIT   51 AT END OF TIME STEP    1, STRESS PERIOD   80
1
  VOLUMETRIC BUDGET FOR ENTIRE MODEL AT END OF TIME STEP    1, STRESS PERIOD  80
  ------------------------------------------------------------------------------

     CUMULATIVE VOLUMES      L**3       RATES FOR THIS TIME STEP      L**3/T
     ------------------                 ------------------------

           IN:                                      IN:
           ---                                      ---
             STORAGE =         708.9495               STORAGE =           0.0000
       CONSTANT HEAD =           0.0000         CONSTANT HEAD =           0.0000
       RIVER LEAKAGE =           0.0000         RIVER LEAKAGE =           0.0000
            RECHARGE =        1728.0000              RECHARGE =          58.0000

            TOTAL IN =        2436.9495              TOTAL IN =          58.0000

          OUT:                                     OUT:
          ----                                     ----
             STORAGE =        1358.2903               STORAGE =          44.8741
       CONSTANT HEAD =         265.2598         CONSTANT HEAD =           3.4231
       RIVER LEAKAGE =         557.3995         RIVER LEAKAGE =           9.7030
            RECHARGE =         256.0000              RECHARGE =           0.0000

           TOTAL OUT =        2436.9497             TOTAL OUT =          58.0001

            IN - OUT =      -2.4414E-04              IN - OUT =      -1.1063E-04

 PERCENT DISCREPANCY =          -0.00     PERCENT DISCREPANCY =          -0.00






         TIME SUMMARY AT END OF TIME STEP    1 IN STRESS PERIOD   80
                    SECONDS     MINUTES      HOURS       DAYS        YEARS
                    -----------------------------------------------------------
   TIME STEP LENGTH  86400.      1440.0      24.000      1.0000     2.73785E-03
 STRESS PERIOD TIME  86400.      1440.0      24.000      1.0000     2.73785E-03
         TOTAL TIME 6.91200E+06 1.15200E+05  1920.0      80.000     0.21903    
1
1
                            STRESS PERIOD NO.   81, LENGTH =   1.000000    
                            -----------------------------------------------

                              NUMBER OF TIME STEPS =     1

                               MULTIPLIER FOR DELT =     1.000

                            INITIAL TIME STEP SIZE =   1.000000    

 REUSING NON-PARAMETER RIVER REACHES FROM LAST STRESS PERIOD

      2 RIVER REACHES

                 RECHARGE = -3.000000E-04
 
 SOLVING FOR HEAD 

 OUTPUT CONTROL FOR STRESS PERIOD   81   TIME STEP    1
    SAVE HEAD FOR ALL LAYERS

 HEAD WILL BE SAVED ON UNIT   51 AT END OF TIME STEP    1, STRESS PERIOD   81
1
  VOLUMETRIC BUDGET FOR ENTIRE MODEL AT END OF TIME STEP    1, STRESS PERIOD  81
  ------------------------------------------------------------------------------

     CUMULATIVE VOLUMES      L**3       RATES FOR THIS TIME STEP      L**3/T
     ------------------                 ------------------------

           IN:                                      IN:
           ---                                      ---
             STORAGE =         724.1752               STORAGE =          15.2256
       CONSTANT HEAD =           0.0000         CONSTANT HEAD =           0.0000
       RIVER LEAKAGE =           0.0000         RIVER LEAKAGE =           0.0000
            RECHARGE =        1728.0000              RECHARGE =           0.0000

            TOTAL IN =        2452.1753              TOTAL IN =          15.2256

          OUT:                                     OUT:
          ----                                     ----
             STORAGE =        1358.5270               STORAGE =           0.2367
       CONSTANT HEAD =         268.6855         CONSTANT HEAD =           3.4257
       RIVER LEAKAGE =         565.9631         RIVER LEAKAGE =           8.5635
            RECHARGE =         259.0000              RECHARGE =           3.0000

           TOTAL OUT =        2452.1755             TOTAL OUT =          15.2259

            IN - OUT =      -2.4414E-04              IN - OUT =      -2.8801E-04

 PERCENT DISCREPANCY =          -0.00     PERCENT DISCREPANCY =          -0.00






         TIME SUMMARY AT END OF TIME STEP    1 IN STRESS PERIOD   81
                    SECONDS     MINUTES      HOURS       DAYS        YEARS
                    -----------------------------------------------------------
   TIME STEP LENGTH  86400.      1440.0      24.000      1.0000     2.73785E-03
 STRESS PERIOD TIME  86400.      1440.0      24.000      1.0000     2.73785E-03
         TOTAL TIME 6.99840E+06 1.16640E+05  1944.0      81.000     0.22177    
1
1
                            STRESS PERIOD NO.   82, LENGTH =   1.000000    
                            -----------------------------------------------

                              NUMBER OF TIME STEPS =     1

                               MULTIPLIER FOR DELT =     1.000

                            INITIAL TIME STEP SIZE =   1.000000    

 REUSING NON-PARAMETER RIVER REACHES FROM LAST STRESS PERIOD

      2 RIVER REACHES

                 RECHARGE =  9.000000E-03
 
 SOLVING FOR HEAD 

 OUTPUT CONTROL FOR STRESS PERIOD   82   TIME STEP    1
    SAVE HEAD FOR ALL LAYERS

 HEAD WILL BE SAVED ON UNIT   51 AT END OF TIME STEP    1, STRESS PERIOD   82
1
  VOLUMETRIC BUDGET FOR ENTIRE MODEL AT END OF TIME STEP    1, STRESS PERIOD  82
  ------------------------------------------------------------------------------

     CUMULATIVE VOLUMES      L**3       RATES FOR THIS TIME STEP      L**3/T
     ------------------                 ------------------------

           IN:                                      IN:
           ---                                      ---
             STORAGE =         724.1752               STORAGE =           0.0000
       CONSTANT HEAD =           0.0000         CONSTANT HEAD =           0.0000
       RIVER LEAKAGE =           0.0000         RIVER LEAKAGE =           0.0000
            RECHARGE =        1818.0000              RECHARGE =          90.0000

            TOTAL IN =        2542.1753              TOTAL IN =          90.0000

          OUT:                                     OUT:
          ----                                     ----
             STORAGE =        1433.7935               STORAGE =          75.2665
       CONSTANT HEAD =         272.1166         CONSTANT HEAD =           3.4311
       RIVER LEAKAGE =         577.2656         RIVER LEAKAGE =          11.3026
            RECHARGE =         259.0000              RECHARGE =           0.0000

           TOTAL OUT =        2542.1758             TOTAL OUT =          90.0001

            IN - OUT =      -4.8828E-04              IN - OUT =      -1.5259E-04

 PERCENT DISCREPANCY =          -0.00     PERCENT DISCREPANCY =          -0.00






         TIME SUMMARY AT END OF TIME STEP    1 IN STRESS PERIOD   82
                    SECONDS     MINUTES      HOURS       DAYS        YEARS
                    -----------------------------------------------------------
   TIME STEP LENGTH  86400.      1440.0      24.000      1.0000     2.73785E-03
 STRESS PERIOD TIME  86400.      1440.0      24.000      1.0000     2.73785E-03
         TOTAL TIME 7.08480E+06 1.18080E+05  1968.0      82.000     0.22450    
1
1
                            STRESS PERIOD NO.   83, LENGTH =   1.000000    
                            -----------------------------------------------

                              NUMBER OF TIME STEPS =     1

                               MULTIPLIER FOR DELT =     1.000

                            INITIAL TIME STEP SIZE =   1.000000    

 REUSING NON-PARAMETER RIVER REACHES FROM LAST STRESS PERIOD

      2 RIVER REACHES

                 RECHARGE = -1.875000E-03
 
 SOLVING FOR HEAD 

 OUTPUT CONTROL FOR STRESS PERIOD   83   TIME STEP    1
    SAVE HEAD FOR ALL LAYERS

 HEAD WILL BE SAVED ON UNIT   51 AT END OF TIME STEP    1, STRESS PERIOD   83
1
  VOLUMETRIC BUDGET FOR ENTIRE MODEL AT END OF TIME STEP    1, STRESS PERIOD  83
  ------------------------------------------------------------------------------

     CUMULATIVE VOLUMES      L**3       RATES FOR THIS TIME STEP      L**3/T
     ------------------                 ------------------------

           IN:                                      IN:
           ---                                      ---
             STORAGE =         755.7651               STORAGE =          31.5900
       CONSTANT HEAD =           0.0000         CONSTANT HEAD =           0.0000
       RIVER LEAKAGE =           0.0000         RIVER LEAKAGE =           0.0000
            RECHARGE =        1818.0000              RECHARGE =           0.0000

            TOTAL IN =        2573.7651              TOTAL IN =          31.5900

          OUT:                                     OUT:
          ----                                     ----
             STORAGE =        1434.0504               STORAGE =           0.2570
       CONSTANT HEAD =         275.5506         CONSTANT HEAD =           3.4339
       RIVER LEAKAGE =         586.4146         RIVER LEAKAGE =           9.1489
            RECHARGE =         277.7500              RECHARGE =          18.7500

           TOTAL OUT =        2573.7656             TOTAL OUT =          31.5898

            IN - OUT =      -4.8828E-04              IN - OUT =       1.6785E-04

 PERCENT DISCREPANCY =          -0.00     PERCENT DISCREPANCY =           0.00






         TIME SUMMARY AT END OF TIME STEP    1 IN STRESS PERIOD   83
                    SECONDS     MINUTES      HOURS       DAYS        YEARS
                    -----------------------------------------------------------
   TIME STEP LENGTH  86400.      1440.0      24.000      1.0000     2.73785E-03
 STRESS PERIOD TIME  86400.      1440.0      24.000      1.0000     2.73785E-03
         TOTAL TIME 7.17120E+06 1.19520E+05  1992.0      83.000     0.22724    
1
1
                            STRESS PERIOD NO.   84, LENGTH =   1.000000    
                            -----------------------------------------------

                              NUMBER OF TIME STEPS =     1

                               MULTIPLIER FOR DELT =     1.000

                            INITIAL TIME STEP SIZE =   1.000000    

 REUSING NON-PARAMETER RIVER REACHES FROM LAST STRESS PERIOD

      2 RIVER REACHES

                 RECHARGE = -1.900000E-03
 
 SOLVING FOR HEAD 

 OUTPUT CONTROL FOR STRESS PERIOD   84   TIME STEP    1
    SAVE HEAD FOR ALL LAYERS

 HEAD WILL BE SAVED ON UNIT   51 AT END OF TIME STEP    1, STRESS PERIOD   84
1
  VOLUMETRIC BUDGET FOR ENTIRE MODEL AT END OF TIME STEP    1, STRESS PERIOD  84
  ------------------------------------------------------------------------------

     CUMULATIVE VOLUMES      L**3       RATES FOR THIS TIME STEP      L**3/T
     ------------------                 ------------------------

           IN:                                      IN:
           ---                                      ---
             STORAGE =         786.4763               STORAGE =          30.7112
       CONSTANT HEAD =           0.0000         CONSTANT HEAD =           0.0000
       RIVER LEAKAGE =           0.0000         RIVER LEAKAGE =           0.0000
            RECHARGE =        1818.0000              RECHARGE =           0.0000

            TOTAL IN =        2604.4763              TOTAL IN =          30.7112

          OUT:                                     OUT:
          ----                                     ----
             STORAGE =        1434.2848               STORAGE =           0.2344
       CONSTANT HEAD =         278.9865         CONSTANT HEAD =           3.4359
       RIVER LEAKAGE =         594.4553         RIVER LEAKAGE =           8.0408
            RECHARGE =         296.7500              RECHARGE =          19.0000

           TOTAL OUT =        2604.4766             TOTAL OUT =          30.7111

            IN - OUT =      -2.4414E-04              IN - OUT =       9.7275E-05

 PERCENT DISCREPANCY =          -0.00     PERCENT DISCREPANCY =           0.00






         TIME SUMMARY AT END OF TIME STEP    1 IN STRESS PERIOD   84
                    SECONDS     MINUTES      HOURS       DAYS        YEARS
                    -----------------------------------------------------------
   TIME STEP LENGTH  86400.      1440.0      24.000      1.0000     2.73785E-03
 STRESS PERIOD TIME  86400.      1440.0      24.000      1.0000     2.73785E-03
         TOTAL TIME 7.25760E+06 1.20960E+05  2016.0      84.000     0.22998    
1
1
                            STRESS PERIOD NO.   85, LENGTH =   1.000000    
                            -----------------------------------------------

                              NUMBER OF TIME STEPS =     1

                               MULTIPLIER FOR DELT =     1.000

                            INITIAL TIME STEP SIZE =   1.000000    

 REUSING NON-PARAMETER RIVER REACHES FROM LAST STRESS PERIOD

      2 RIVER REACHES

                 RECHARGE = -2.300000E-03
 
 SOLVING FOR HEAD 

 OUTPUT CONTROL FOR STRESS PERIOD   85   TIME STEP    1
    SAVE HEAD FOR ALL LAYERS

 HEAD WILL BE SAVED ON UNIT   51 AT END OF TIME STEP    1, STRESS PERIOD   85
1
  VOLUMETRIC BUDGET FOR ENTIRE MODEL AT END OF TIME STEP    1, STRESS PERIOD  85
  ------------------------------------------------------------------------------

     CUMULATIVE VOLUMES      L**3       RATES FOR THIS TIME STEP      L**3/T
     ------------------                 ------------------------

           IN:                                      IN:
           ---                                      ---
             STORAGE =         820.2521               STORAGE =          33.7757
       CONSTANT HEAD =           0.0000         CONSTANT HEAD =           0.0000
       RIVER LEAKAGE =           0.0000         RIVER LEAKAGE =           0.0000
            RECHARGE =        1818.0000              RECHARGE =           0.0000

            TOTAL IN =        2638.2520              TOTAL IN =          33.7757

          OUT:                                     OUT:
          ----                                     ----
             STORAGE =        1434.4952               STORAGE =           0.2104
       CONSTANT HEAD =         282.4236         CONSTANT HEAD =           3.4372
       RIVER LEAKAGE =         601.5836         RIVER LEAKAGE =           7.1283
            RECHARGE =         319.7500              RECHARGE =          23.0000

           TOTAL OUT =        2638.2524             TOTAL OUT =          33.7759

            IN - OUT =      -4.8828E-04              IN - OUT =      -1.7548E-04

 PERCENT DISCREPANCY =          -0.00     PERCENT DISCREPANCY =          -0.00






         TIME SUMMARY AT END OF TIME STEP    1 IN STRESS PERIOD   85
                    SECONDS     MINUTES      HOURS       DAYS        YEARS
                    -----------------------------------------------------------
   TIME STEP LENGTH  86400.      1440.0      24.000      1.0000     2.73785E-03
 STRESS PERIOD TIME  86400.      1440.0      24.000      1.0000     2.73785E-03
         TOTAL TIME 7.34400E+06 1.22400E+05  2040.0      85.000     0.23272    
1
1
                            STRESS PERIOD NO.   86, LENGTH =   1.000000    
                            -----------------------------------------------

                              NUMBER OF TIME STEPS =     1

                               MULTIPLIER FOR DELT =     1.000

                            INITIAL TIME STEP SIZE =   1.000000    

 REUSING NON-PARAMETER RIVER REACHES FROM LAST STRESS PERIOD

      2 RIVER REACHES

                 RECHARGE = -2.300000E-03
 
 SOLVING FOR HEAD 

 OUTPUT CONTROL FOR STRESS PERIOD   86   TIME STEP    1
    SAVE HEAD FOR ALL LAYERS

 HEAD WILL BE SAVED ON UNIT   51 AT END OF TIME STEP    1, STRESS PERIOD   86
1
  VOLUMETRIC BUDGET FOR ENTIRE MODEL AT END OF TIME STEP    1, STRESS PERIOD  86
  ------------------------------------------------------------------------------

     CUMULATIVE VOLUMES      L**3       RATES FOR THIS TIME STEP      L**3/T
     ------------------                 ------------------------

           IN:                                      IN:
           ---                                      ---
             STORAGE =         853.3071               STORAGE =          33.0550
       CONSTANT HEAD =           0.0000         CONSTANT HEAD =           0.0000
       RIVER LEAKAGE =           0.0000         RIVER LEAKAGE =           0.0000
            RECHARGE =        1818.0000              RECHARGE =           0.0000

            TOTAL IN =        2671.3071              TOTAL IN =          33.0550

          OUT:                                     OUT:
          ----                                     ----
             STORAGE =        1434.6826               STORAGE =           0.1874
       CONSTANT HEAD =         285.8616         CONSTANT HEAD =           3.4380
       RIVER LEAKAGE =         608.0134         RIVER LEAKAGE =           6.4298
            RECHARGE =         342.7500              RECHARGE =          23.0000

           TOTAL OUT =        2671.3076             TOTAL OUT =          33.0552

            IN - OUT =      -4.8828E-04              IN - OUT =      -1.9836E-04

 PERCENT DISCREPANCY =          -0.00     PERCENT DISCREPANCY =          -0.00






         TIME SUMMARY AT END OF TIME STEP    1 IN STRESS PERIOD   86
                    SECONDS     MINUTES      HOURS       DAYS        YEARS
                    -----------------------------------------------------------
   TIME STEP LENGTH  86400.      1440.0      24.000      1.0000     2.73785E-03
 STRESS PERIOD TIME  86400.      1440.0      24.000      1.0000     2.73785E-03
         TOTAL TIME 7.43040E+06 1.23840E+05  2064.0      86.000     0.23546    
1
1
                            STRESS PERIOD NO.   87, LENGTH =   1.000000    
                            -----------------------------------------------

                              NUMBER OF TIME STEPS =     1

                               MULTIPLIER FOR DELT =     1.000

                            INITIAL TIME STEP SIZE =   1.000000    

 REUSING NON-PARAMETER RIVER REACHES FROM LAST STRESS PERIOD

      2 RIVER REACHES

                 RECHARGE = -2.300000E-03
 
 SOLVING FOR HEAD 

 OUTPUT CONTROL FOR STRESS PERIOD   87   TIME STEP    1
    SAVE HEAD FOR ALL LAYERS

 HEAD WILL BE SAVED ON UNIT   51 AT END OF TIME STEP    1, STRESS PERIOD   87
1
  VOLUMETRIC BUDGET FOR ENTIRE MODEL AT END OF TIME STEP    1, STRESS PERIOD  87
  ------------------------------------------------------------------------------

     CUMULATIVE VOLUMES      L**3       RATES FOR THIS TIME STEP      L**3/T
     ------------------                 ------------------------

           IN:                                      IN:
           ---                                      ---
             STORAGE =         885.7568               STORAGE =          32.4497
       CONSTANT HEAD =           0.0000         CONSTANT HEAD =           0.0000
       RIVER LEAKAGE =           0.0000         RIVER LEAKAGE =           0.0000
            RECHARGE =        1818.0000              RECHARGE =           0.0000

            TOTAL IN =        2703.7568              TOTAL IN =          32.4497

          OUT:                                     OUT:
          ----                                     ----
             STORAGE =        1434.8479               STORAGE =           0.1653
       CONSTANT HEAD =         289.3000         CONSTANT HEAD =           3.4384
       RIVER LEAKAGE =         613.8597         RIVER LEAKAGE =           5.8462
            RECHARGE =         365.7500              RECHARGE =          23.0000

           TOTAL OUT =        2703.7576             TOTAL OUT =          32.4499

            IN - OUT =      -7.3242E-04              IN - OUT =      -2.0599E-04

 PERCENT DISCREPANCY =          -0.00     PERCENT DISCREPANCY =          -0.00






         TIME SUMMARY AT END OF TIME STEP    1 IN STRESS PERIOD   87
                    SECONDS     MINUTES      HOURS       DAYS        YEARS
                    -----------------------------------------------------------
   TIME STEP LENGTH  86400.      1440.0      24.000      1.0000     2.73785E-03
 STRESS PERIOD TIME  86400.      1440.0      24.000      1.0000     2.73785E-03
         TOTAL TIME 7.51680E+06 1.25280E+05  2088.0      87.000     0.23819    
1
1
                            STRESS PERIOD NO.   88, LENGTH =   1.000000    
                            -----------------------------------------------

                              NUMBER OF TIME STEPS =     1

                               MULTIPLIER FOR DELT =     1.000

                            INITIAL TIME STEP SIZE =   1.000000    

 REUSING NON-PARAMETER RIVER REACHES FROM LAST STRESS PERIOD

      2 RIVER REACHES

                 RECHARGE = -1.900000E-03
 
 SOLVING FOR HEAD 

 OUTPUT CONTROL FOR STRESS PERIOD   88   TIME STEP    1
    SAVE HEAD FOR ALL LAYERS

 HEAD WILL BE SAVED ON UNIT   51 AT END OF TIME STEP    1, STRESS PERIOD   88
1
  VOLUMETRIC BUDGET FOR ENTIRE MODEL AT END OF TIME STEP    1, STRESS PERIOD  88
  ------------------------------------------------------------------------------

     CUMULATIVE VOLUMES      L**3       RATES FOR THIS TIME STEP      L**3/T
     ------------------                 ------------------------

           IN:                                      IN:
           ---                                      ---
             STORAGE =         913.8195               STORAGE =          28.0627
       CONSTANT HEAD =           0.0000         CONSTANT HEAD =           0.0000
       RIVER LEAKAGE =           0.0000         RIVER LEAKAGE =           0.0000
            RECHARGE =        1818.0000              RECHARGE =           0.0000

            TOTAL IN =        2731.8196              TOTAL IN =          28.0627

          OUT:                                     OUT:
          ----                                     ----
             STORAGE =        1434.9941               STORAGE =           0.1462
       CONSTANT HEAD =         292.7387         CONSTANT HEAD =           3.4387
       RIVER LEAKAGE =         619.3373         RIVER LEAKAGE =           5.4777
            RECHARGE =         384.7500              RECHARGE =          19.0000

           TOTAL OUT =        2731.8203             TOTAL OUT =          28.0626

            IN - OUT =      -7.3242E-04              IN - OUT =       8.3923E-05

 PERCENT DISCREPANCY =          -0.00     PERCENT DISCREPANCY =           0.00






         TIME SUMMARY AT END OF TIME STEP    1 IN STRESS PERIOD   88
                    SECONDS     MINUTES      HOURS       DAYS        YEARS
                    -----------------------------------------------------------
   TIME STEP LENGTH  86400.      1440.0      24.000      1.0000     2.73785E-03
 STRESS PERIOD TIME  86400.      1440.0      24.000      1.0000     2.73785E-03
         TOTAL TIME 7.60320E+06 1.26720E+05  2112.0      88.000     0.24093    
1
1
                            STRESS PERIOD NO.   89, LENGTH =   1.000000    
                            -----------------------------------------------

                              NUMBER OF TIME STEPS =     1

                               MULTIPLIER FOR DELT =     1.000

                            INITIAL TIME STEP SIZE =   1.000000    

 REUSING NON-PARAMETER RIVER REACHES FROM LAST STRESS PERIOD

      2 RIVER REACHES

                 RECHARGE = -2.600000E-03
 
 SOLVING FOR HEAD 

 OUTPUT CONTROL FOR STRESS PERIOD   89   TIME STEP    1
    SAVE HEAD FOR ALL LAYERS

 HEAD WILL BE SAVED ON UNIT   51 AT END OF TIME STEP    1, STRESS PERIOD   89
1
  VOLUMETRIC BUDGET FOR ENTIRE MODEL AT END OF TIME STEP    1, STRESS PERIOD  89
  ------------------------------------------------------------------------------

     CUMULATIVE VOLUMES      L**3       RATES FOR THIS TIME STEP      L**3/T
     ------------------                 ------------------------

           IN:                                      IN:
           ---                                      ---
             STORAGE =         948.2446               STORAGE =          34.4251
       CONSTANT HEAD =           0.0000         CONSTANT HEAD =           0.0000
       RIVER LEAKAGE =           0.0000         RIVER LEAKAGE =           0.0000
            RECHARGE =        1818.0000              RECHARGE =           0.0000

            TOTAL IN =        2766.2446              TOTAL IN =          34.4251

          OUT:                                     OUT:
          ----                                     ----
             STORAGE =        1435.1177               STORAGE =           0.1236
       CONSTANT HEAD =         296.1771         CONSTANT HEAD =           3.4384
       RIVER LEAKAGE =         624.2004         RIVER LEAKAGE =           4.8631
            RECHARGE =         410.7500              RECHARGE =          26.0000

           TOTAL OUT =        2766.2451             TOTAL OUT =          34.4250

            IN - OUT =      -4.8828E-04              IN - OUT =       4.5776E-05

 PERCENT DISCREPANCY =          -0.00     PERCENT DISCREPANCY =           0.00






         TIME SUMMARY AT END OF TIME STEP    1 IN STRESS PERIOD   89
                    SECONDS     MINUTES      HOURS       DAYS        YEARS
                    -----------------------------------------------------------
   TIME STEP LENGTH  86400.      1440.0      24.000      1.0000     2.73785E-03
 STRESS PERIOD TIME  86400.      1440.0      24.000      1.0000     2.73785E-03
         TOTAL TIME 7.68960E+06 1.28160E+05  2136.0      89.000     0.24367    
1
1
                            STRESS PERIOD NO.   90, LENGTH =   1.000000    
                            -----------------------------------------------

                              NUMBER OF TIME STEPS =     1

                               MULTIPLIER FOR DELT =     1.000

                            INITIAL TIME STEP SIZE =   1.000000    

 REUSING NON-PARAMETER RIVER REACHES FROM LAST STRESS PERIOD

      2 RIVER REACHES

                 RECHARGE = -2.500000E-03
 
 SOLVING FOR HEAD 

 OUTPUT CONTROL FOR STRESS PERIOD   90   TIME STEP    1
    SAVE HEAD FOR ALL LAYERS

 HEAD WILL BE SAVED ON UNIT   51 AT END OF TIME STEP    1, STRESS PERIOD   90
1
  VOLUMETRIC BUDGET FOR ENTIRE MODEL AT END OF TIME STEP    1, STRESS PERIOD  90
  ------------------------------------------------------------------------------

     CUMULATIVE VOLUMES      L**3       RATES FOR THIS TIME STEP      L**3/T
     ------------------                 ------------------------

           IN:                                      IN:
           ---                                      ---
             STORAGE =         981.1812               STORAGE =          32.9366
       CONSTANT HEAD =           0.0000         CONSTANT HEAD =           0.0000
       RIVER LEAKAGE =           0.0000         RIVER LEAKAGE =           0.0000
            RECHARGE =        1818.0000              RECHARGE =           0.0000

            TOTAL IN =        2799.1812              TOTAL IN =          32.9366

          OUT:                                     OUT:
          ----                                     ----
             STORAGE =        1435.2203               STORAGE =           0.1027
       CONSTANT HEAD =         299.6149         CONSTANT HEAD =           3.4378
       RIVER LEAKAGE =         628.5963         RIVER LEAKAGE =           4.3959
            RECHARGE =         435.7500              RECHARGE =          25.0000

           TOTAL OUT =        2799.1816             TOTAL OUT =          32.9365

            IN - OUT =      -4.8828E-04              IN - OUT =       1.0300E-04

 PERCENT DISCREPANCY =          -0.00     PERCENT DISCREPANCY =           0.00






         TIME SUMMARY AT END OF TIME STEP    1 IN STRESS PERIOD   90
                    SECONDS     MINUTES      HOURS       DAYS        YEARS
                    -----------------------------------------------------------
   TIME STEP LENGTH  86400.      1440.0      24.000      1.0000     2.73785E-03
 STRESS PERIOD TIME  86400.      1440.0      24.000      1.0000     2.73785E-03
         TOTAL TIME 7.77600E+06 1.29600E+05  2160.0      90.000     0.24641    
1
1
                            STRESS PERIOD NO.   91, LENGTH =   1.000000    
                            -----------------------------------------------

                              NUMBER OF TIME STEPS =     1

                               MULTIPLIER FOR DELT =     1.000

                            INITIAL TIME STEP SIZE =   1.000000    

 REUSING NON-PARAMETER RIVER REACHES FROM LAST STRESS PERIOD

      2 RIVER REACHES

                 RECHARGE = -7.750000E-04
 
 SOLVING FOR HEAD 

 OUTPUT CONTROL FOR STRESS PERIOD   91   TIME STEP    1
    SAVE HEAD FOR ALL LAYERS

 HEAD WILL BE SAVED ON UNIT   51 AT END OF TIME STEP    1, STRESS PERIOD   91
1
  VOLUMETRIC BUDGET FOR ENTIRE MODEL AT END OF TIME STEP    1, STRESS PERIOD  91
  ------------------------------------------------------------------------------

     CUMULATIVE VOLUMES      L**3       RATES FOR THIS TIME STEP      L**3/T
     ------------------                 ------------------------

           IN:                                      IN:
           ---                                      ---
             STORAGE =         997.1148               STORAGE =          15.9336
       CONSTANT HEAD =           0.0000         CONSTANT HEAD =           0.0000
       RIVER LEAKAGE =           0.0000         RIVER LEAKAGE =           0.0000
            RECHARGE =        1818.0000              RECHARGE =           0.0000

            TOTAL IN =        2815.1147              TOTAL IN =          15.9336

          OUT:                                     OUT:
          ----                                     ----
             STORAGE =        1435.3894               STORAGE =           0.1691
       CONSTANT HEAD =         303.0525         CONSTANT HEAD =           3.4376
       RIVER LEAKAGE =         633.1732         RIVER LEAKAGE =           4.5769
            RECHARGE =         443.5000              RECHARGE =           7.7500

           TOTAL OUT =        2815.1150             TOTAL OUT =          15.9336

            IN - OUT =      -2.4414E-04              IN - OUT =       4.5776E-05

 PERCENT DISCREPANCY =          -0.00     PERCENT DISCREPANCY =           0.00






         TIME SUMMARY AT END OF TIME STEP    1 IN STRESS PERIOD   91
                    SECONDS     MINUTES      HOURS       DAYS        YEARS
                    -----------------------------------------------------------
   TIME STEP LENGTH  86400.      1440.0      24.000      1.0000     2.73785E-03
 STRESS PERIOD TIME  86400.      1440.0      24.000      1.0000     2.73785E-03
         TOTAL TIME 7.86240E+06 1.31040E+05  2184.0      91.000     0.24914    
1
1
                            STRESS PERIOD NO.   92, LENGTH =   1.000000    
                            -----------------------------------------------

                              NUMBER OF TIME STEPS =     1

                               MULTIPLIER FOR DELT =     1.000

                            INITIAL TIME STEP SIZE =   1.000000    

 REUSING NON-PARAMETER RIVER REACHES FROM LAST STRESS PERIOD

      2 RIVER REACHES

                 RECHARGE = -2.200000E-03
 
 SOLVING FOR HEAD 

 OUTPUT CONTROL FOR STRESS PERIOD   92   TIME STEP    1
    SAVE HEAD FOR ALL LAYERS

 HEAD WILL BE SAVED ON UNIT   51 AT END OF TIME STEP    1, STRESS PERIOD   92
1
  VOLUMETRIC BUDGET FOR ENTIRE MODEL AT END OF TIME STEP    1, STRESS PERIOD  92
  ------------------------------------------------------------------------------

     CUMULATIVE VOLUMES      L**3       RATES FOR THIS TIME STEP      L**3/T
     ------------------                 ------------------------

           IN:                                      IN:
           ---                                      ---
             STORAGE =        1026.6891               STORAGE =          29.5742
       CONSTANT HEAD =           0.0000         CONSTANT HEAD =           0.0000
       RIVER LEAKAGE =           0.0000         RIVER LEAKAGE =           0.0000
            RECHARGE =        1818.0000              RECHARGE =           0.0000

            TOTAL IN =        2844.6890              TOTAL IN =          29.5742

          OUT:                                     OUT:
          ----                                     ----
             STORAGE =        1435.4640               STORAGE =       7.4567E-02
       CONSTANT HEAD =         306.4894         CONSTANT HEAD =           3.4369
       RIVER LEAKAGE =         637.2361         RIVER LEAKAGE =           4.0630
            RECHARGE =         465.5000              RECHARGE =          22.0000

           TOTAL OUT =        2844.6895             TOTAL OUT =          29.5744

            IN - OUT =      -4.8828E-04              IN - OUT =      -1.8883E-04

 PERCENT DISCREPANCY =          -0.00     PERCENT DISCREPANCY =          -0.00






         TIME SUMMARY AT END OF TIME STEP    1 IN STRESS PERIOD   92
                    SECONDS     MINUTES      HOURS       DAYS        YEARS
                    -----------------------------------------------------------
   TIME STEP LENGTH  86400.      1440.0      24.000      1.0000     2.73785E-03
 STRESS PERIOD TIME  86400.      1440.0      24.000      1.0000     2.73785E-03
         TOTAL TIME 7.94880E+06 1.32480E+05  2208.0      92.000     0.25188    
1
1
                            STRESS PERIOD NO.   93, LENGTH =   1.000000    
                            -----------------------------------------------

                              NUMBER OF TIME STEPS =     1

                               MULTIPLIER FOR DELT =     1.000

                            INITIAL TIME STEP SIZE =   1.000000    

 REUSING NON-PARAMETER RIVER REACHES FROM LAST STRESS PERIOD

      2 RIVER REACHES

                 RECHARGE = -6.000000E-04
 
 SOLVING FOR HEAD 

 OUTPUT CONTROL FOR STRESS PERIOD   93   TIME STEP    1
    SAVE HEAD FOR ALL LAYERS

 HEAD WILL BE SAVED ON UNIT   51 AT END OF TIME STEP    1, STRESS PERIOD   93
1
  VOLUMETRIC BUDGET FOR ENTIRE MODEL AT END OF TIME STEP    1, STRESS PERIOD  93
  ------------------------------------------------------------------------------

     CUMULATIVE VOLUMES      L**3       RATES FOR THIS TIME STEP      L**3/T
     ------------------                 ------------------------

           IN:                                      IN:
           ---                                      ---
             STORAGE =        1040.5261               STORAGE =          13.8370
       CONSTANT HEAD =           0.0000         CONSTANT HEAD =           0.0000
       RIVER LEAKAGE =           0.0000         RIVER LEAKAGE =           0.0000
            RECHARGE =        1818.0000              RECHARGE =           0.0000

            TOTAL IN =        2858.5261              TOTAL IN =          13.8370

          OUT:                                     OUT:
          ----                                     ----
             STORAGE =        1435.6254               STORAGE =           0.1613
       CONSTANT HEAD =         309.9258         CONSTANT HEAD =           3.4364
       RIVER LEAKAGE =         641.4753         RIVER LEAKAGE =           4.2392
            RECHARGE =         471.5000              RECHARGE =           6.0000

           TOTAL OUT =        2858.5264             TOTAL OUT =          13.8370

            IN - OUT =      -2.4414E-04              IN - OUT =       4.7684E-05

 PERCENT DISCREPANCY =          -0.00     PERCENT DISCREPANCY =           0.00






         TIME SUMMARY AT END OF TIME STEP    1 IN STRESS PERIOD   93
                    SECONDS     MINUTES      HOURS       DAYS        YEARS
                    -----------------------------------------------------------
   TIME STEP LENGTH  86400.      1440.0      24.000      1.0000     2.73785E-03
 STRESS PERIOD TIME  86400.      1440.0      24.000      1.0000     2.73785E-03
         TOTAL TIME 8.03520E+06 1.33920E+05  2232.0      93.000     0.25462    
1
1
                            STRESS PERIOD NO.   94, LENGTH =   1.000000    
                            -----------------------------------------------

                              NUMBER OF TIME STEPS =     1

                               MULTIPLIER FOR DELT =     1.000

                            INITIAL TIME STEP SIZE =   1.000000    

 REUSING NON-PARAMETER RIVER REACHES FROM LAST STRESS PERIOD

      2 RIVER REACHES

                 RECHARGE = -8.750000E-04
 
 SOLVING FOR HEAD 

 OUTPUT CONTROL FOR STRESS PERIOD   94   TIME STEP    1
    SAVE HEAD FOR ALL LAYERS

 HEAD WILL BE SAVED ON UNIT   51 AT END OF TIME STEP    1, STRESS PERIOD   94
1
  VOLUMETRIC BUDGET FOR ENTIRE MODEL AT END OF TIME STEP    1, STRESS PERIOD  94
  ------------------------------------------------------------------------------

     CUMULATIVE VOLUMES      L**3       RATES FOR THIS TIME STEP      L**3/T
     ------------------                 ------------------------

           IN:                                      IN:
           ---                                      ---
             STORAGE =        1056.9218               STORAGE =          16.3956
       CONSTANT HEAD =           0.0000         CONSTANT HEAD =           0.0000
       RIVER LEAKAGE =           0.0000         RIVER LEAKAGE =           0.0000
            RECHARGE =        1818.0000              RECHARGE =           0.0000

            TOTAL IN =        2874.9219              TOTAL IN =          16.3956

          OUT:                                     OUT:
          ----                                     ----
             STORAGE =        1435.6812               STORAGE =       5.5811E-02
       CONSTANT HEAD =         313.3617         CONSTANT HEAD =           3.4359
       RIVER LEAKAGE =         645.6293         RIVER LEAKAGE =           4.1540
            RECHARGE =         480.2500              RECHARGE =           8.7500

           TOTAL OUT =        2874.9221             TOTAL OUT =          16.3957

            IN - OUT =      -2.4414E-04              IN - OUT =      -3.0518E-05

 PERCENT DISCREPANCY =          -0.00     PERCENT DISCREPANCY =          -0.00






         TIME SUMMARY AT END OF TIME STEP    1 IN STRESS PERIOD   94
                    SECONDS     MINUTES      HOURS       DAYS        YEARS
                    -----------------------------------------------------------
   TIME STEP LENGTH  86400.      1440.0      24.000      1.0000     2.73785E-03
 STRESS PERIOD TIME  86400.      1440.0      24.000      1.0000     2.73785E-03
         TOTAL TIME 8.12160E+06 1.35360E+05  2256.0      94.000     0.25736    
1
1
                            STRESS PERIOD NO.   95, LENGTH =   1.000000    
                            -----------------------------------------------

                              NUMBER OF TIME STEPS =     1

                               MULTIPLIER FOR DELT =     1.000

                            INITIAL TIME STEP SIZE =   1.000000    

 REUSING NON-PARAMETER RIVER REACHES FROM LAST STRESS PERIOD

      2 RIVER REACHES

                 RECHARGE = -2.500000E-03
 
 SOLVING FOR HEAD 

 OUTPUT CONTROL FOR STRESS PERIOD   95   TIME STEP    1
    SAVE HEAD FOR ALL LAYERS

 HEAD WILL BE SAVED ON UNIT   51 AT END OF TIME STEP    1, STRESS PERIOD   95
1
  VOLUMETRIC BUDGET FOR ENTIRE MODEL AT END OF TIME STEP    1, STRESS PERIOD  95
  ------------------------------------------------------------------------------

     CUMULATIVE VOLUMES      L**3       RATES FOR THIS TIME STEP      L**3/T
     ------------------                 ------------------------

           IN:                                      IN:
           ---                                      ---
             STORAGE =        1088.8788               STORAGE =          31.9570
       CONSTANT HEAD =           0.0000         CONSTANT HEAD =           0.0000
       RIVER LEAKAGE =           0.0000         RIVER LEAKAGE =           0.0000
            RECHARGE =        1818.0000              RECHARGE =           0.0000

            TOTAL IN =        2906.8789              TOTAL IN =          31.9570

          OUT:                                     OUT:
          ----                                     ----
             STORAGE =        1435.7211               STORAGE =       3.9868E-02
       CONSTANT HEAD =         316.7965         CONSTANT HEAD =           3.4348
       RIVER LEAKAGE =         649.1116         RIVER LEAKAGE =           3.4823
            RECHARGE =         505.2500              RECHARGE =          25.0000

           TOTAL OUT =        2906.8792             TOTAL OUT =          31.9570

            IN - OUT =      -2.4414E-04              IN - OUT =       7.4387E-05

 PERCENT DISCREPANCY =          -0.00     PERCENT DISCREPANCY =           0.00






         TIME SUMMARY AT END OF TIME STEP    1 IN STRESS PERIOD   95
                    SECONDS     MINUTES      HOURS       DAYS        YEARS
                    -----------------------------------------------------------
   TIME STEP LENGTH  86400.      1440.0      24.000      1.0000     2.73785E-03
 STRESS PERIOD TIME  86400.      1440.0      24.000      1.0000     2.73785E-03
         TOTAL TIME 8.20800E+06 1.36800E+05  2280.0      95.000     0.26010    
1
1
                            STRESS PERIOD NO.   96, LENGTH =   1.000000    
                            -----------------------------------------------

                              NUMBER OF TIME STEPS =     1

                               MULTIPLIER FOR DELT =     1.000

                            INITIAL TIME STEP SIZE =   1.000000    

 REUSING NON-PARAMETER RIVER REACHES FROM LAST STRESS PERIOD

      2 RIVER REACHES

                 RECHARGE = -1.500000E-03
 
 SOLVING FOR HEAD 

 OUTPUT CONTROL FOR STRESS PERIOD   96   TIME STEP    1
    SAVE HEAD FOR ALL LAYERS

 HEAD WILL BE SAVED ON UNIT   51 AT END OF TIME STEP    1, STRESS PERIOD   96
1
  VOLUMETRIC BUDGET FOR ENTIRE MODEL AT END OF TIME STEP    1, STRESS PERIOD  96
  ------------------------------------------------------------------------------

     CUMULATIVE VOLUMES      L**3       RATES FOR THIS TIME STEP      L**3/T
     ------------------                 ------------------------

           IN:                                      IN:
           ---                                      ---
             STORAGE =        1110.7067               STORAGE =          21.8279
       CONSTANT HEAD =           0.0000         CONSTANT HEAD =           0.0000
       RIVER LEAKAGE =           0.0000         RIVER LEAKAGE =           0.0000
            RECHARGE =        1818.0000              RECHARGE =           0.0000

            TOTAL IN =        2928.7065              TOTAL IN =          21.8279

          OUT:                                     OUT:
          ----                                     ----
             STORAGE =        1435.7504               STORAGE =       2.9289E-02
       CONSTANT HEAD =         320.2301         CONSTANT HEAD =           3.4336
       RIVER LEAKAGE =         652.4767         RIVER LEAKAGE =           3.3651
            RECHARGE =         520.2500              RECHARGE =          15.0000

           TOTAL OUT =        2928.7070             TOTAL OUT =          21.8280

            IN - OUT =      -4.8828E-04              IN - OUT =      -9.7275E-05

 PERCENT DISCREPANCY =          -0.00     PERCENT DISCREPANCY =          -0.00






         TIME SUMMARY AT END OF TIME STEP    1 IN STRESS PERIOD   96
                    SECONDS     MINUTES      HOURS       DAYS        YEARS
                    -----------------------------------------------------------
   TIME STEP LENGTH  86400.      1440.0      24.000      1.0000     2.73785E-03
 STRESS PERIOD TIME  86400.      1440.0      24.000      1.0000     2.73785E-03
         TOTAL TIME 8.29440E+06 1.38240E+05  2304.0      96.000     0.26283    
1
1
                            STRESS PERIOD NO.   97, LENGTH =   1.000000    
                            -----------------------------------------------

                              NUMBER OF TIME STEPS =     1

                               MULTIPLIER FOR DELT =     1.000

                            INITIAL TIME STEP SIZE =   1.000000    

 REUSING NON-PARAMETER RIVER REACHES FROM LAST STRESS PERIOD

      2 RIVER REACHES

                 RECHARGE = -2.000000E-03
 
 SOLVING FOR HEAD 

 OUTPUT CONTROL FOR STRESS PERIOD   97   TIME STEP    1
    SAVE HEAD FOR ALL LAYERS

 HEAD WILL BE SAVED ON UNIT   51 AT END OF TIME STEP    1, STRESS PERIOD   97
1
  VOLUMETRIC BUDGET FOR ENTIRE MODEL AT END OF TIME STEP    1, STRESS PERIOD  97
  ------------------------------------------------------------------------------

     CUMULATIVE VOLUMES      L**3       RATES FOR THIS TIME STEP      L**3/T
     ------------------                 ------------------------

           IN:                                      IN:
           ---                                      ---
             STORAGE =        1137.1730               STORAGE =          26.4663
       CONSTANT HEAD =           0.0000         CONSTANT HEAD =           0.0000
       RIVER LEAKAGE =           0.0000         RIVER LEAKAGE =           0.0000
            RECHARGE =        1818.0000              RECHARGE =           0.0000

            TOTAL IN =        2955.1729              TOTAL IN =          26.4663

          OUT:                                     OUT:
          ----                                     ----
             STORAGE =        1435.7688               STORAGE =       1.8382E-02
       CONSTANT HEAD =         323.6623         CONSTANT HEAD =           3.4322
       RIVER LEAKAGE =         655.4925         RIVER LEAKAGE =           3.0158
            RECHARGE =         540.2500              RECHARGE =          20.0000

           TOTAL OUT =        2955.1736             TOTAL OUT =          26.4664

            IN - OUT =      -7.3242E-04              IN - OUT =      -6.4850E-05

 PERCENT DISCREPANCY =          -0.00     PERCENT DISCREPANCY =          -0.00






         TIME SUMMARY AT END OF TIME STEP    1 IN STRESS PERIOD   97
                    SECONDS     MINUTES      HOURS       DAYS        YEARS
                    -----------------------------------------------------------
   TIME STEP LENGTH  86400.      1440.0      24.000      1.0000     2.73785E-03
 STRESS PERIOD TIME  86400.      1440.0      24.000      1.0000     2.73785E-03
         TOTAL TIME 8.38080E+06 1.39680E+05  2328.0      97.000     0.26557    
1
1
                            STRESS PERIOD NO.   98, LENGTH =   1.000000    
                            -----------------------------------------------

                              NUMBER OF TIME STEPS =     1

                               MULTIPLIER FOR DELT =     1.000

                            INITIAL TIME STEP SIZE =   1.000000    

 REUSING NON-PARAMETER RIVER REACHES FROM LAST STRESS PERIOD

      2 RIVER REACHES

                 RECHARGE = -1.800000E-03
 
 SOLVING FOR HEAD 

 OUTPUT CONTROL FOR STRESS PERIOD   98   TIME STEP    1
    SAVE HEAD FOR ALL LAYERS

 HEAD WILL BE SAVED ON UNIT   51 AT END OF TIME STEP    1, STRESS PERIOD   98
1
  VOLUMETRIC BUDGET FOR ENTIRE MODEL AT END OF TIME STEP    1, STRESS PERIOD  98
  ------------------------------------------------------------------------------

     CUMULATIVE VOLUMES      L**3       RATES FOR THIS TIME STEP      L**3/T
     ------------------                 ------------------------

           IN:                                      IN:
           ---                                      ---
             STORAGE =        1161.4078               STORAGE =          24.2349
       CONSTANT HEAD =           0.0000         CONSTANT HEAD =           0.0000
       RIVER LEAKAGE =           0.0000         RIVER LEAKAGE =           0.0000
            RECHARGE =        1818.0000              RECHARGE =           0.0000

            TOTAL IN =        2979.4077              TOTAL IN =          24.2349

          OUT:                                     OUT:
          ----                                     ----
             STORAGE =        1435.7786               STORAGE =       9.7752E-03
       CONSTANT HEAD =         327.0929         CONSTANT HEAD =           3.4306
       RIVER LEAKAGE =         658.2869         RIVER LEAKAGE =           2.7943
            RECHARGE =         558.2500              RECHARGE =          18.0000

           TOTAL OUT =        2979.4082             TOTAL OUT =          24.2347

            IN - OUT =      -4.8828E-04              IN - OUT =       1.2779E-04

 PERCENT DISCREPANCY =          -0.00     PERCENT DISCREPANCY =           0.00






         TIME SUMMARY AT END OF TIME STEP    1 IN STRESS PERIOD   98
                    SECONDS     MINUTES      HOURS       DAYS        YEARS
                    -----------------------------------------------------------
   TIME STEP LENGTH  86400.      1440.0      24.000      1.0000     2.73785E-03
 STRESS PERIOD TIME  86400.      1440.0      24.000      1.0000     2.73785E-03
         TOTAL TIME 8.46720E+06 1.41120E+05  2352.0      98.000     0.26831    
1
1
                            STRESS PERIOD NO.   99, LENGTH =   1.000000    
                            -----------------------------------------------

                              NUMBER OF TIME STEPS =     1

                               MULTIPLIER FOR DELT =     1.000

                            INITIAL TIME STEP SIZE =   1.000000    

 REUSING NON-PARAMETER RIVER REACHES FROM LAST STRESS PERIOD

      2 RIVER REACHES

                 RECHARGE = -1.275000E-03
 
 SOLVING FOR HEAD 

 OUTPUT CONTROL FOR STRESS PERIOD   99   TIME STEP    1
    SAVE HEAD FOR ALL LAYERS

 HEAD WILL BE SAVED ON UNIT   51 AT END OF TIME STEP    1, STRESS PERIOD   99
1
  VOLUMETRIC BUDGET FOR ENTIRE MODEL AT END OF TIME STEP    1, STRESS PERIOD  99
  ------------------------------------------------------------------------------

     CUMULATIVE VOLUMES      L**3       RATES FOR THIS TIME STEP      L**3/T
     ------------------                 ------------------------

           IN:                                      IN:
           ---                                      ---
             STORAGE =        1180.3470               STORAGE =          18.9392
       CONSTANT HEAD =           0.0000         CONSTANT HEAD =           0.0000
       RIVER LEAKAGE =           0.0000         RIVER LEAKAGE =           0.0000
            RECHARGE =        1818.0000              RECHARGE =           0.0000

            TOTAL IN =        2998.3472              TOTAL IN =          18.9392

          OUT:                                     OUT:
          ----                                     ----
             STORAGE =        1435.7827               STORAGE =       4.0932E-03
       CONSTANT HEAD =         330.5220         CONSTANT HEAD =           3.4291
       RIVER LEAKAGE =         661.0427         RIVER LEAKAGE =           2.7559
            RECHARGE =         571.0000              RECHARGE =          12.7500

           TOTAL OUT =        2998.3474             TOTAL OUT =          18.9391

            IN - OUT =      -2.4414E-04              IN - OUT =       1.4114E-04

 PERCENT DISCREPANCY =          -0.00     PERCENT DISCREPANCY =           0.00






         TIME SUMMARY AT END OF TIME STEP    1 IN STRESS PERIOD   99
                    SECONDS     MINUTES      HOURS       DAYS        YEARS
                    -----------------------------------------------------------
   TIME STEP LENGTH  86400.      1440.0      24.000      1.0000     2.73785E-03
 STRESS PERIOD TIME  86400.      1440.0      24.000      1.0000     2.73785E-03
         TOTAL TIME 8.55360E+06 1.42560E+05  2376.0      99.000     0.27105    
1
1
                            STRESS PERIOD NO.  100, LENGTH =   1.000000    
                            -----------------------------------------------

                              NUMBER OF TIME STEPS =     1

                               MULTIPLIER FOR DELT =     1.000

                            INITIAL TIME STEP SIZE =   1.000000    

 REUSING NON-PARAMETER RIVER REACHES FROM LAST STRESS PERIOD

      2 RIVER REACHES

                 RECHARGE = -1.400000E-03
 
 SOLVING FOR HEAD 

 OUTPUT CONTROL FOR STRESS PERIOD  100   TIME STEP    1
    SAVE HEAD FOR ALL LAYERS

 HEAD WILL BE SAVED ON UNIT   51 AT END OF TIME STEP    1, STRESS PERIOD  100
1
  VOLUMETRIC BUDGET FOR ENTIRE MODEL AT END OF TIME STEP    1, STRESS PERIOD 100
  ------------------------------------------------------------------------------

     CUMULATIVE VOLUMES      L**3       RATES FOR THIS TIME STEP      L**3/T
     ------------------                 ------------------------

           IN:                                      IN:
           ---                                      ---
             STORAGE =        1200.3860               STORAGE =          20.0389
       CONSTANT HEAD =           0.0000         CONSTANT HEAD =           0.0000
       RIVER LEAKAGE =           0.0000         RIVER LEAKAGE =           0.0000
            RECHARGE =        1818.0000              RECHARGE =           0.0000

            TOTAL IN =        3018.3860              TOTAL IN =          20.0389

          OUT:                                     OUT:
          ----                                     ----
             STORAGE =        1435.7830               STORAGE =       3.0231E-04
       CONSTANT HEAD =         333.9495         CONSTANT HEAD =           3.4275
       RIVER LEAKAGE =         663.6539         RIVER LEAKAGE =           2.6112
            RECHARGE =         585.0000              RECHARGE =          14.0000

           TOTAL OUT =        3018.3862             TOTAL OUT =          20.0390

            IN - OUT =      -2.4414E-04              IN - OUT =      -5.1498E-05

 PERCENT DISCREPANCY =          -0.00     PERCENT DISCREPANCY =          -0.00






         TIME SUMMARY AT END OF TIME STEP    1 IN STRESS PERIOD  100
                    SECONDS     MINUTES      HOURS       DAYS        YEARS
                    -----------------------------------------------------------
   TIME STEP LENGTH  86400.      1440.0      24.000      1.0000     2.73785E-03
 STRESS PERIOD TIME  86400.      1440.0      24.000      1.0000     2.73785E-03
         TOTAL TIME 8.64000E+06 1.44000E+05  2400.0      100.00     0.27379    
1
1
                            STRESS PERIOD NO.  101, LENGTH =   1.000000    
                            -----------------------------------------------

                              NUMBER OF TIME STEPS =     1

                               MULTIPLIER FOR DELT =     1.000

                            INITIAL TIME STEP SIZE =   1.000000    

 REUSING NON-PARAMETER RIVER REACHES FROM LAST STRESS PERIOD

      2 RIVER REACHES

                 RECHARGE = -2.000000E-03
 
 SOLVING FOR HEAD 

 OUTPUT CONTROL FOR STRESS PERIOD  101   TIME STEP    1
    SAVE HEAD FOR ALL LAYERS

 HEAD WILL BE SAVED ON UNIT   51 AT END OF TIME STEP    1, STRESS PERIOD  101
1
  VOLUMETRIC BUDGET FOR ENTIRE MODEL AT END OF TIME STEP    1, STRESS PERIOD 101
  ------------------------------------------------------------------------------

     CUMULATIVE VOLUMES      L**3       RATES FOR THIS TIME STEP      L**3/T
     ------------------                 ------------------------

           IN:                                      IN:
           ---                                      ---
             STORAGE =        1226.0658               STORAGE =          25.6798
       CONSTANT HEAD =           0.0000         CONSTANT HEAD =           0.0000
       RIVER LEAKAGE =           0.0000         RIVER LEAKAGE =           0.0000
            RECHARGE =        1818.0000              RECHARGE =           0.0000

            TOTAL IN =        3044.0659              TOTAL IN =          25.6798

          OUT:                                     OUT:
          ----                                     ----
             STORAGE =        1435.7830               STORAGE =           0.0000
       CONSTANT HEAD =         337.3750         CONSTANT HEAD =           3.4255
       RIVER LEAKAGE =         665.9083         RIVER LEAKAGE =           2.2544
            RECHARGE =         605.0000              RECHARGE =          20.0000

           TOTAL OUT =        3044.0662             TOTAL OUT =          25.6799

            IN - OUT =      -2.4414E-04              IN - OUT =      -5.3406E-05

 PERCENT DISCREPANCY =          -0.00     PERCENT DISCREPANCY =          -0.00






         TIME SUMMARY AT END OF TIME STEP    1 IN STRESS PERIOD  101
                    SECONDS     MINUTES      HOURS       DAYS        YEARS
                    -----------------------------------------------------------
   TIME STEP LENGTH  86400.      1440.0      24.000      1.0000     2.73785E-03
 STRESS PERIOD TIME  86400.      1440.0      24.000      1.0000     2.73785E-03
         TOTAL TIME 8.72640E+06 1.45440E+05  2424.0      101.00     0.27652    
1
1
                            STRESS PERIOD NO.  102, LENGTH =   1.000000    
                            -----------------------------------------------

                              NUMBER OF TIME STEPS =     1

                               MULTIPLIER FOR DELT =     1.000

                            INITIAL TIME STEP SIZE =   1.000000    

 REUSING NON-PARAMETER RIVER REACHES FROM LAST STRESS PERIOD

      2 RIVER REACHES

                 RECHARGE = -3.200000E-03
 
 SOLVING FOR HEAD 

 OUTPUT CONTROL FOR STRESS PERIOD  102   TIME STEP    1
    SAVE HEAD FOR ALL LAYERS

 HEAD WILL BE SAVED ON UNIT   51 AT END OF TIME STEP    1, STRESS PERIOD  102
1
  VOLUMETRIC BUDGET FOR ENTIRE MODEL AT END OF TIME STEP    1, STRESS PERIOD 102
  ------------------------------------------------------------------------------

     CUMULATIVE VOLUMES      L**3       RATES FOR THIS TIME STEP      L**3/T
     ------------------                 ------------------------

           IN:                                      IN:
           ---                                      ---
             STORAGE =        1263.0442               STORAGE =          36.9784
       CONSTANT HEAD =           0.0000         CONSTANT HEAD =           0.0000
       RIVER LEAKAGE =           0.0000         RIVER LEAKAGE =           0.0000
            RECHARGE =        1818.0000              RECHARGE =           0.0000

            TOTAL IN =        3081.0442              TOTAL IN =          36.9784

          OUT:                                     OUT:
          ----                                     ----
             STORAGE =        1435.7830               STORAGE =           0.0000
       CONSTANT HEAD =         340.7979         CONSTANT HEAD =           3.4229
       RIVER LEAKAGE =         667.4636         RIVER LEAKAGE =           1.5554
            RECHARGE =         637.0000              RECHARGE =          32.0000

           TOTAL OUT =        3081.0444             TOTAL OUT =          36.9783

            IN - OUT =      -2.4414E-04              IN - OUT =       8.7738E-05

 PERCENT DISCREPANCY =          -0.00     PERCENT DISCREPANCY =           0.00






         TIME SUMMARY AT END OF TIME STEP    1 IN STRESS PERIOD  102
                    SECONDS     MINUTES      HOURS       DAYS        YEARS
                    -----------------------------------------------------------
   TIME STEP LENGTH  86400.      1440.0      24.000      1.0000     2.73785E-03
 STRESS PERIOD TIME  86400.      1440.0      24.000      1.0000     2.73785E-03
         TOTAL TIME 8.81280E+06 1.46880E+05  2448.0      102.00     0.27926    
1
1
                            STRESS PERIOD NO.  103, LENGTH =   1.000000    
                            -----------------------------------------------

                              NUMBER OF TIME STEPS =     1

                               MULTIPLIER FOR DELT =     1.000

                            INITIAL TIME STEP SIZE =   1.000000    

 REUSING NON-PARAMETER RIVER REACHES FROM LAST STRESS PERIOD

      2 RIVER REACHES

                 RECHARGE = -1.900000E-03
 
 SOLVING FOR HEAD 

 OUTPUT CONTROL FOR STRESS PERIOD  103   TIME STEP    1
    SAVE HEAD FOR ALL LAYERS

 HEAD WILL BE SAVED ON UNIT   51 AT END OF TIME STEP    1, STRESS PERIOD  103
1
  VOLUMETRIC BUDGET FOR ENTIRE MODEL AT END OF TIME STEP    1, STRESS PERIOD 103
  ------------------------------------------------------------------------------

     CUMULATIVE VOLUMES      L**3       RATES FOR THIS TIME STEP      L**3/T
     ------------------                 ------------------------

           IN:                                      IN:
           ---                                      ---
             STORAGE =        1286.9639               STORAGE =          23.9197
       CONSTANT HEAD =           0.0000         CONSTANT HEAD =           0.0000
       RIVER LEAKAGE =           0.0000         RIVER LEAKAGE =           0.0000
            RECHARGE =        1818.0000              RECHARGE =           0.0000

            TOTAL IN =        3104.9639              TOTAL IN =          23.9197

          OUT:                                     OUT:
          ----                                     ----
             STORAGE =        1435.7830               STORAGE =           0.0000
       CONSTANT HEAD =         344.2184         CONSTANT HEAD =           3.4205
       RIVER LEAKAGE =         668.9628         RIVER LEAKAGE =           1.4991
            RECHARGE =         656.0000              RECHARGE =          19.0000

           TOTAL OUT =        3104.9641             TOTAL OUT =          23.9196

            IN - OUT =      -2.4414E-04              IN - OUT =       1.0490E-04

 PERCENT DISCREPANCY =          -0.00     PERCENT DISCREPANCY =           0.00






         TIME SUMMARY AT END OF TIME STEP    1 IN STRESS PERIOD  103
                    SECONDS     MINUTES      HOURS       DAYS        YEARS
                    -----------------------------------------------------------
   TIME STEP LENGTH  86400.      1440.0      24.000      1.0000     2.73785E-03
 STRESS PERIOD TIME  86400.      1440.0      24.000      1.0000     2.73785E-03
         TOTAL TIME 8.89920E+06 1.48320E+05  2472.0      103.00     0.28200    
1
1
                            STRESS PERIOD NO.  104, LENGTH =   1.000000    
                            -----------------------------------------------

                              NUMBER OF TIME STEPS =     1

                               MULTIPLIER FOR DELT =     1.000

                            INITIAL TIME STEP SIZE =   1.000000    

 REUSING NON-PARAMETER RIVER REACHES FROM LAST STRESS PERIOD

      2 RIVER REACHES

                 RECHARGE = -2.300000E-03
 
 SOLVING FOR HEAD 

 OUTPUT CONTROL FOR STRESS PERIOD  104   TIME STEP    1
    SAVE HEAD FOR ALL LAYERS

 HEAD WILL BE SAVED ON UNIT   51 AT END OF TIME STEP    1, STRESS PERIOD  104
1
  VOLUMETRIC BUDGET FOR ENTIRE MODEL AT END OF TIME STEP    1, STRESS PERIOD 104
  ------------------------------------------------------------------------------

     CUMULATIVE VOLUMES      L**3       RATES FOR THIS TIME STEP      L**3/T
     ------------------                 ------------------------

           IN:                                      IN:
           ---                                      ---
             STORAGE =        1314.5900               STORAGE =          27.6261
       CONSTANT HEAD =           0.0000         CONSTANT HEAD =           0.0000
       RIVER LEAKAGE =           0.0000         RIVER LEAKAGE =           0.0000
            RECHARGE =        1818.0000              RECHARGE =           0.0000

            TOTAL IN =        3132.5898              TOTAL IN =          27.6261

          OUT:                                     OUT:
          ----                                     ----
             STORAGE =        1435.7830               STORAGE =           0.0000
       CONSTANT HEAD =         347.6362         CONSTANT HEAD =           3.4178
       RIVER LEAKAGE =         670.1713         RIVER LEAKAGE =           1.2085
            RECHARGE =         679.0000              RECHARGE =          23.0000

           TOTAL OUT =        3132.5903             TOTAL OUT =          27.6263

            IN - OUT =      -4.8828E-04              IN - OUT =      -2.0409E-04

 PERCENT DISCREPANCY =          -0.00     PERCENT DISCREPANCY =          -0.00






         TIME SUMMARY AT END OF TIME STEP    1 IN STRESS PERIOD  104
                    SECONDS     MINUTES      HOURS       DAYS        YEARS
                    -----------------------------------------------------------
   TIME STEP LENGTH  86400.      1440.0      24.000      1.0000     2.73785E-03
 STRESS PERIOD TIME  86400.      1440.0      24.000      1.0000     2.73785E-03
         TOTAL TIME 8.98560E+06 1.49760E+05  2496.0      104.00     0.28474    
1
1
                            STRESS PERIOD NO.  105, LENGTH =   1.000000    
                            -----------------------------------------------

                              NUMBER OF TIME STEPS =     1

                               MULTIPLIER FOR DELT =     1.000

                            INITIAL TIME STEP SIZE =   1.000000    

 REUSING NON-PARAMETER RIVER REACHES FROM LAST STRESS PERIOD

      2 RIVER REACHES

                 RECHARGE = -1.000000E-04
 
 SOLVING FOR HEAD 

 OUTPUT CONTROL FOR STRESS PERIOD  105   TIME STEP    1
    SAVE HEAD FOR ALL LAYERS

 HEAD WILL BE SAVED ON UNIT   51 AT END OF TIME STEP    1, STRESS PERIOD  105
1
  VOLUMETRIC BUDGET FOR ENTIRE MODEL AT END OF TIME STEP    1, STRESS PERIOD 105
  ------------------------------------------------------------------------------

     CUMULATIVE VOLUMES      L**3       RATES FOR THIS TIME STEP      L**3/T
     ------------------                 ------------------------

           IN:                                      IN:
           ---                                      ---
             STORAGE =        1321.9060               STORAGE =           7.3161
       CONSTANT HEAD =           0.0000         CONSTANT HEAD =           0.0000
       RIVER LEAKAGE =           0.0000         RIVER LEAKAGE =           0.0000
            RECHARGE =        1818.0000              RECHARGE =           0.0000

            TOTAL IN =        3139.9060              TOTAL IN =           7.3161

          OUT:                                     OUT:
          ----                                     ----
             STORAGE =        1436.9634               STORAGE =           1.1804
       CONSTANT HEAD =         351.0518         CONSTANT HEAD =           3.4157
       RIVER LEAKAGE =         671.8914         RIVER LEAKAGE =           1.7201
            RECHARGE =         680.0000              RECHARGE =           1.0000

           TOTAL OUT =        3139.9065             TOTAL OUT =           7.3161

            IN - OUT =      -4.8828E-04              IN - OUT =      -3.9577E-05

 PERCENT DISCREPANCY =          -0.00     PERCENT DISCREPANCY =          -0.00






         TIME SUMMARY AT END OF TIME STEP    1 IN STRESS PERIOD  105
                    SECONDS     MINUTES      HOURS       DAYS        YEARS
                    -----------------------------------------------------------
   TIME STEP LENGTH  86400.      1440.0      24.000      1.0000     2.73785E-03
 STRESS PERIOD TIME  86400.      1440.0      24.000      1.0000     2.73785E-03
         TOTAL TIME 9.07200E+06 1.51200E+05  2520.0      105.00     0.28747    
1
1
                            STRESS PERIOD NO.  106, LENGTH =   1.000000    
                            -----------------------------------------------

                              NUMBER OF TIME STEPS =     1

                               MULTIPLIER FOR DELT =     1.000

                            INITIAL TIME STEP SIZE =   1.000000    

 REUSING NON-PARAMETER RIVER REACHES FROM LAST STRESS PERIOD

      2 RIVER REACHES

                 RECHARGE = -2.175000E-03
 
 SOLVING FOR HEAD 

 OUTPUT CONTROL FOR STRESS PERIOD  106   TIME STEP    1
    SAVE HEAD FOR ALL LAYERS

 HEAD WILL BE SAVED ON UNIT   51 AT END OF TIME STEP    1, STRESS PERIOD  106
1
  VOLUMETRIC BUDGET FOR ENTIRE MODEL AT END OF TIME STEP    1, STRESS PERIOD 106
  ------------------------------------------------------------------------------

     CUMULATIVE VOLUMES      L**3       RATES FOR THIS TIME STEP      L**3/T
     ------------------                 ------------------------

           IN:                                      IN:
           ---                                      ---
             STORAGE =        1348.3013               STORAGE =          26.3952
       CONSTANT HEAD =           0.0000         CONSTANT HEAD =           0.0000
       RIVER LEAKAGE =           0.0000         RIVER LEAKAGE =           0.0000
            RECHARGE =        1818.0000              RECHARGE =           0.0000

            TOTAL IN =        3166.3013              TOTAL IN =          26.3952

          OUT:                                     OUT:
          ----                                     ----
             STORAGE =        1436.9634               STORAGE =           0.0000
       CONSTANT HEAD =         354.4648         CONSTANT HEAD =           3.4130
       RIVER LEAKAGE =         673.1236         RIVER LEAKAGE =           1.2323
            RECHARGE =         701.7500              RECHARGE =          21.7500

           TOTAL OUT =        3166.3018             TOTAL OUT =          26.3952

            IN - OUT =      -4.8828E-04              IN - OUT =      -3.4332E-05

 PERCENT DISCREPANCY =          -0.00     PERCENT DISCREPANCY =          -0.00






         TIME SUMMARY AT END OF TIME STEP    1 IN STRESS PERIOD  106
                    SECONDS     MINUTES      HOURS       DAYS        YEARS
                    -----------------------------------------------------------
   TIME STEP LENGTH  86400.      1440.0      24.000      1.0000     2.73785E-03
 STRESS PERIOD TIME  86400.      1440.0      24.000      1.0000     2.73785E-03
         TOTAL TIME 9.15840E+06 1.52640E+05  2544.0      106.00     0.29021    
1
1
                            STRESS PERIOD NO.  107, LENGTH =   1.000000    
                            -----------------------------------------------

                              NUMBER OF TIME STEPS =     1

                               MULTIPLIER FOR DELT =     1.000

                            INITIAL TIME STEP SIZE =   1.000000    

 REUSING NON-PARAMETER RIVER REACHES FROM LAST STRESS PERIOD

      2 RIVER REACHES

                 RECHARGE = -1.175000E-03
 
 SOLVING FOR HEAD 

 OUTPUT CONTROL FOR STRESS PERIOD  107   TIME STEP    1
    SAVE HEAD FOR ALL LAYERS

 HEAD WILL BE SAVED ON UNIT   51 AT END OF TIME STEP    1, STRESS PERIOD  107
1
  VOLUMETRIC BUDGET FOR ENTIRE MODEL AT END OF TIME STEP    1, STRESS PERIOD 107
  ------------------------------------------------------------------------------

     CUMULATIVE VOLUMES      L**3       RATES FOR THIS TIME STEP      L**3/T
     ------------------                 ------------------------

           IN:                                      IN:
           ---                                      ---
             STORAGE =        1364.7377               STORAGE =          16.4364
       CONSTANT HEAD =           0.0000         CONSTANT HEAD =           0.0000
       RIVER LEAKAGE =           0.0000         RIVER LEAKAGE =           0.0000
            RECHARGE =        1818.0000              RECHARGE =           0.0000

            TOTAL IN =        3182.7378              TOTAL IN =          16.4364

          OUT:                                     OUT:
          ----                                     ----
             STORAGE =        1436.9694               STORAGE =       5.9946E-03
       CONSTANT HEAD =         357.8752         CONSTANT HEAD =           3.4104
       RIVER LEAKAGE =         674.3933         RIVER LEAKAGE =           1.2697
            RECHARGE =         713.5000              RECHARGE =          11.7500

           TOTAL OUT =        3182.7378             TOTAL OUT =          16.4362

            IN - OUT =           0.0000              IN - OUT =       2.0981E-04

 PERCENT DISCREPANCY =           0.00     PERCENT DISCREPANCY =           0.00






         TIME SUMMARY AT END OF TIME STEP    1 IN STRESS PERIOD  107
                    SECONDS     MINUTES      HOURS       DAYS        YEARS
                    -----------------------------------------------------------
   TIME STEP LENGTH  86400.      1440.0      24.000      1.0000     2.73785E-03
 STRESS PERIOD TIME  86400.      1440.0      24.000      1.0000     2.73785E-03
         TOTAL TIME 9.24480E+06 1.54080E+05  2568.0      107.00     0.29295    
1
1
                            STRESS PERIOD NO.  108, LENGTH =   1.000000    
                            -----------------------------------------------

                              NUMBER OF TIME STEPS =     1

                               MULTIPLIER FOR DELT =     1.000

                            INITIAL TIME STEP SIZE =   1.000000    

 REUSING NON-PARAMETER RIVER REACHES FROM LAST STRESS PERIOD

      2 RIVER REACHES

                 RECHARGE =  1.500000E-03
 
 SOLVING FOR HEAD 

 OUTPUT CONTROL FOR STRESS PERIOD  108   TIME STEP    1
    SAVE HEAD FOR ALL LAYERS

 HEAD WILL BE SAVED ON UNIT   51 AT END OF TIME STEP    1, STRESS PERIOD  108
1
  VOLUMETRIC BUDGET FOR ENTIRE MODEL AT END OF TIME STEP    1, STRESS PERIOD 108
  ------------------------------------------------------------------------------

     CUMULATIVE VOLUMES      L**3       RATES FOR THIS TIME STEP      L**3/T
     ------------------                 ------------------------

           IN:                                      IN:
           ---                                      ---
             STORAGE =        1364.8542               STORAGE =           0.1166
       CONSTANT HEAD =           0.0000         CONSTANT HEAD =           0.0000
       RIVER LEAKAGE =           0.0000         RIVER LEAKAGE =           0.0000
            RECHARGE =        1833.0000              RECHARGE =          15.0000

            TOTAL IN =        3197.8542              TOTAL IN =          15.1166

          OUT:                                     OUT:
          ----                                     ----
             STORAGE =        1446.5137               STORAGE =           9.5443
       CONSTANT HEAD =         361.2840         CONSTANT HEAD =           3.4088
       RIVER LEAKAGE =         676.5566         RIVER LEAKAGE =           2.1633
            RECHARGE =         713.5000              RECHARGE =           0.0000

           TOTAL OUT =        3197.8545             TOTAL OUT =          15.1164

            IN - OUT =      -2.4414E-04              IN - OUT =       1.3447E-04

 PERCENT DISCREPANCY =          -0.00     PERCENT DISCREPANCY =           0.00






         TIME SUMMARY AT END OF TIME STEP    1 IN STRESS PERIOD  108
                    SECONDS     MINUTES      HOURS       DAYS        YEARS
                    -----------------------------------------------------------
   TIME STEP LENGTH  86400.      1440.0      24.000      1.0000     2.73785E-03
 STRESS PERIOD TIME  86400.      1440.0      24.000      1.0000     2.73785E-03
         TOTAL TIME 9.33120E+06 1.55520E+05  2592.0      108.00     0.29569    
1
1
                            STRESS PERIOD NO.  109, LENGTH =   1.000000    
                            -----------------------------------------------

                              NUMBER OF TIME STEPS =     1

                               MULTIPLIER FOR DELT =     1.000

                            INITIAL TIME STEP SIZE =   1.000000    

 REUSING NON-PARAMETER RIVER REACHES FROM LAST STRESS PERIOD

      2 RIVER REACHES

                 RECHARGE =  1.300000E-03
 
 SOLVING FOR HEAD 

 OUTPUT CONTROL FOR STRESS PERIOD  109   TIME STEP    1
    SAVE HEAD FOR ALL LAYERS

 HEAD WILL BE SAVED ON UNIT   51 AT END OF TIME STEP    1, STRESS PERIOD  109
1
  VOLUMETRIC BUDGET FOR ENTIRE MODEL AT END OF TIME STEP    1, STRESS PERIOD 109
  ------------------------------------------------------------------------------

     CUMULATIVE VOLUMES      L**3       RATES FOR THIS TIME STEP      L**3/T
     ------------------                 ------------------------

           IN:                                      IN:
           ---                                      ---
             STORAGE =        1364.9646               STORAGE =           0.1104
       CONSTANT HEAD =           0.0000         CONSTANT HEAD =           0.0000
       RIVER LEAKAGE =           0.0000         RIVER LEAKAGE =           0.0000
            RECHARGE =        1846.0000              RECHARGE =          13.0000

            TOTAL IN =        3210.9646              TOTAL IN =          13.1104

          OUT:                                     OUT:
          ----                                     ----
             STORAGE =        1453.6049               STORAGE =           7.0912
       CONSTANT HEAD =         364.6915         CONSTANT HEAD =           3.4074
       RIVER LEAKAGE =         679.1685         RIVER LEAKAGE =           2.6118
            RECHARGE =         713.5000              RECHARGE =           0.0000

           TOTAL OUT =        3210.9648             TOTAL OUT =          13.1104

            IN - OUT =      -2.4414E-04              IN - OUT =      -4.4823E-05

 PERCENT DISCREPANCY =          -0.00     PERCENT DISCREPANCY =          -0.00






         TIME SUMMARY AT END OF TIME STEP    1 IN STRESS PERIOD  109
                    SECONDS     MINUTES      HOURS       DAYS        YEARS
                    -----------------------------------------------------------
   TIME STEP LENGTH  86400.      1440.0      24.000      1.0000     2.73785E-03
 STRESS PERIOD TIME  86400.      1440.0      24.000      1.0000     2.73785E-03
         TOTAL TIME 9.41760E+06 1.56960E+05  2616.0      109.00     0.29843    
1
1
                            STRESS PERIOD NO.  110, LENGTH =   1.000000    
                            -----------------------------------------------

                              NUMBER OF TIME STEPS =     1

                               MULTIPLIER FOR DELT =     1.000

                            INITIAL TIME STEP SIZE =   1.000000    

 REUSING NON-PARAMETER RIVER REACHES FROM LAST STRESS PERIOD

      2 RIVER REACHES

                 RECHARGE =  6.400000E-03
 
 SOLVING FOR HEAD 

 OUTPUT CONTROL FOR STRESS PERIOD  110   TIME STEP    1
    SAVE HEAD FOR ALL LAYERS

 HEAD WILL BE SAVED ON UNIT   51 AT END OF TIME STEP    1, STRESS PERIOD  110
1
  VOLUMETRIC BUDGET FOR ENTIRE MODEL AT END OF TIME STEP    1, STRESS PERIOD 110
  ------------------------------------------------------------------------------

     CUMULATIVE VOLUMES      L**3       RATES FOR THIS TIME STEP      L**3/T
     ------------------                 ------------------------

           IN:                                      IN:
           ---                                      ---
             STORAGE =        1365.0385               STORAGE =       7.3855E-02
       CONSTANT HEAD =           0.0000         CONSTANT HEAD =           0.0000
       RIVER LEAKAGE =           0.0000         RIVER LEAKAGE =           0.0000
            RECHARGE =        1910.0000              RECHARGE =          64.0000

            TOTAL IN =        3275.0386              TOTAL IN =          64.0739

          OUT:                                     OUT:
          ----                                     ----
             STORAGE =        1509.5396               STORAGE =          55.9346
       CONSTANT HEAD =         368.0995         CONSTANT HEAD =           3.4081
       RIVER LEAKAGE =         683.8997         RIVER LEAKAGE =           4.7313
            RECHARGE =         713.5000              RECHARGE =           0.0000

           TOTAL OUT =        3275.0388             TOTAL OUT =          64.0740

            IN - OUT =      -2.4414E-04              IN - OUT =      -1.2970E-04

 PERCENT DISCREPANCY =          -0.00     PERCENT DISCREPANCY =          -0.00






         TIME SUMMARY AT END OF TIME STEP    1 IN STRESS PERIOD  110
                    SECONDS     MINUTES      HOURS       DAYS        YEARS
                    -----------------------------------------------------------
   TIME STEP LENGTH  86400.      1440.0      24.000      1.0000     2.73785E-03
 STRESS PERIOD TIME  86400.      1440.0      24.000      1.0000     2.73785E-03
         TOTAL TIME 9.50400E+06 1.58400E+05  2640.0      110.00     0.30116    
1
1
                            STRESS PERIOD NO.  111, LENGTH =   1.000000    
                            -----------------------------------------------

                              NUMBER OF TIME STEPS =     1

                               MULTIPLIER FOR DELT =     1.000

                            INITIAL TIME STEP SIZE =   1.000000    

 REUSING NON-PARAMETER RIVER REACHES FROM LAST STRESS PERIOD

      2 RIVER REACHES

                 RECHARGE = -2.275000E-03
 
 SOLVING FOR HEAD 

 OUTPUT CONTROL FOR STRESS PERIOD  111   TIME STEP    1
    SAVE HEAD FOR ALL LAYERS

 HEAD WILL BE SAVED ON UNIT   51 AT END OF TIME STEP    1, STRESS PERIOD  111
1
  VOLUMETRIC BUDGET FOR ENTIRE MODEL AT END OF TIME STEP    1, STRESS PERIOD 111
  ------------------------------------------------------------------------------

     CUMULATIVE VOLUMES      L**3       RATES FOR THIS TIME STEP      L**3/T
     ------------------                 ------------------------

           IN:                                      IN:
           ---                                      ---
             STORAGE =        1394.2683               STORAGE =          29.2299
       CONSTANT HEAD =           0.0000         CONSTANT HEAD =           0.0000
       RIVER LEAKAGE =           0.0000         RIVER LEAKAGE =           0.0000
            RECHARGE =        1910.0000              RECHARGE =           0.0000

            TOTAL IN =        3304.2683              TOTAL IN =          29.2299

          OUT:                                     OUT:
          ----                                     ----
             STORAGE =        1509.5396               STORAGE =           0.0000
       CONSTANT HEAD =         371.5062         CONSTANT HEAD =           3.4067
       RIVER LEAKAGE =         686.9731         RIVER LEAKAGE =           3.0734
            RECHARGE =         736.2500              RECHARGE =          22.7500

           TOTAL OUT =        3304.2688             TOTAL OUT =          29.2300

            IN - OUT =      -4.8828E-04              IN - OUT =      -1.4305E-04

 PERCENT DISCREPANCY =          -0.00     PERCENT DISCREPANCY =          -0.00






         TIME SUMMARY AT END OF TIME STEP    1 IN STRESS PERIOD  111
                    SECONDS     MINUTES      HOURS       DAYS        YEARS
                    -----------------------------------------------------------
   TIME STEP LENGTH  86400.      1440.0      24.000      1.0000     2.73785E-03
 STRESS PERIOD TIME  86400.      1440.0      24.000      1.0000     2.73785E-03
         TOTAL TIME 9.59040E+06 1.59840E+05  2664.0      111.00     0.30390    
1
1
                            STRESS PERIOD NO.  112, LENGTH =   1.000000    
                            -----------------------------------------------

                              NUMBER OF TIME STEPS =     1

                               MULTIPLIER FOR DELT =     1.000

                            INITIAL TIME STEP SIZE =   1.000000    

 REUSING NON-PARAMETER RIVER REACHES FROM LAST STRESS PERIOD

      2 RIVER REACHES

                 RECHARGE = -1.900000E-03
 
 SOLVING FOR HEAD 

 OUTPUT CONTROL FOR STRESS PERIOD  112   TIME STEP    1
    SAVE HEAD FOR ALL LAYERS

 HEAD WILL BE SAVED ON UNIT   51 AT END OF TIME STEP    1, STRESS PERIOD  112
1
  VOLUMETRIC BUDGET FOR ENTIRE MODEL AT END OF TIME STEP    1, STRESS PERIOD 112
  ------------------------------------------------------------------------------

     CUMULATIVE VOLUMES      L**3       RATES FOR THIS TIME STEP      L**3/T
     ------------------                 ------------------------

           IN:                                      IN:
           ---                                      ---
             STORAGE =        1419.0673               STORAGE =          24.7989
       CONSTANT HEAD =           0.0000         CONSTANT HEAD =           0.0000
       RIVER LEAKAGE =           0.0000         RIVER LEAKAGE =           0.0000
            RECHARGE =        1910.0000              RECHARGE =           0.0000

            TOTAL IN =        3329.0674              TOTAL IN =          24.7989

          OUT:                                     OUT:
          ----                                     ----
             STORAGE =        1509.5396               STORAGE =           0.0000
       CONSTANT HEAD =         374.9109         CONSTANT HEAD =           3.4047
       RIVER LEAKAGE =         689.3672         RIVER LEAKAGE =           2.3941
            RECHARGE =         755.2500              RECHARGE =          19.0000

           TOTAL OUT =        3329.0676             TOTAL OUT =          24.7989

            IN - OUT =      -2.4414E-04              IN - OUT =       7.2479E-05

 PERCENT DISCREPANCY =          -0.00     PERCENT DISCREPANCY =           0.00






         TIME SUMMARY AT END OF TIME STEP    1 IN STRESS PERIOD  112
                    SECONDS     MINUTES      HOURS       DAYS        YEARS
                    -----------------------------------------------------------
   TIME STEP LENGTH  86400.      1440.0      24.000      1.0000     2.73785E-03
 STRESS PERIOD TIME  86400.      1440.0      24.000      1.0000     2.73785E-03
         TOTAL TIME 9.67680E+06 1.61280E+05  2688.0      112.00     0.30664    
1
1
                            STRESS PERIOD NO.  113, LENGTH =   1.000000    
                            -----------------------------------------------

                              NUMBER OF TIME STEPS =     1

                               MULTIPLIER FOR DELT =     1.000

                            INITIAL TIME STEP SIZE =   1.000000    

 REUSING NON-PARAMETER RIVER REACHES FROM LAST STRESS PERIOD

      2 RIVER REACHES

                 RECHARGE = -2.900000E-03
 
 SOLVING FOR HEAD 

 OUTPUT CONTROL FOR STRESS PERIOD  113   TIME STEP    1
    SAVE HEAD FOR ALL LAYERS

 HEAD WILL BE SAVED ON UNIT   51 AT END OF TIME STEP    1, STRESS PERIOD  113
1
  VOLUMETRIC BUDGET FOR ENTIRE MODEL AT END OF TIME STEP    1, STRESS PERIOD 113
  ------------------------------------------------------------------------------

     CUMULATIVE VOLUMES      L**3       RATES FOR THIS TIME STEP      L**3/T
     ------------------                 ------------------------

           IN:                                      IN:
           ---                                      ---
             STORAGE =        1453.0446               STORAGE =          33.9773
       CONSTANT HEAD =           0.0000         CONSTANT HEAD =           0.0000
       RIVER LEAKAGE =           0.0000         RIVER LEAKAGE =           0.0000
            RECHARGE =        1910.0000              RECHARGE =           0.0000

            TOTAL IN =        3363.0444              TOTAL IN =          33.9773

          OUT:                                     OUT:
          ----                                     ----
             STORAGE =        1509.5396               STORAGE =           0.0000
       CONSTANT HEAD =         378.3130         CONSTANT HEAD =           3.4021
       RIVER LEAKAGE =         690.9426         RIVER LEAKAGE =           1.5753
            RECHARGE =         784.2500              RECHARGE =          29.0000

           TOTAL OUT =        3363.0452             TOTAL OUT =          33.9774

            IN - OUT =      -7.3242E-04              IN - OUT =      -1.7929E-04

 PERCENT DISCREPANCY =          -0.00     PERCENT DISCREPANCY =          -0.00






         TIME SUMMARY AT END OF TIME STEP    1 IN STRESS PERIOD  113
                    SECONDS     MINUTES      HOURS       DAYS        YEARS
                    -----------------------------------------------------------
   TIME STEP LENGTH  86400.      1440.0      24.000      1.0000     2.73785E-03
 STRESS PERIOD TIME  86400.      1440.0      24.000      1.0000     2.73785E-03
         TOTAL TIME 9.76320E+06 1.62720E+05  2712.0      113.00     0.30938    
1
1
                            STRESS PERIOD NO.  114, LENGTH =   1.000000    
                            -----------------------------------------------

                              NUMBER OF TIME STEPS =     1

                               MULTIPLIER FOR DELT =     1.000

                            INITIAL TIME STEP SIZE =   1.000000    

 REUSING NON-PARAMETER RIVER REACHES FROM LAST STRESS PERIOD

      2 RIVER REACHES

                 RECHARGE = -7.000000E-04
 
 SOLVING FOR HEAD 

 OUTPUT CONTROL FOR STRESS PERIOD  114   TIME STEP    1
    SAVE HEAD FOR ALL LAYERS

 HEAD WILL BE SAVED ON UNIT   51 AT END OF TIME STEP    1, STRESS PERIOD  114
1
  VOLUMETRIC BUDGET FOR ENTIRE MODEL AT END OF TIME STEP    1, STRESS PERIOD 114
  ------------------------------------------------------------------------------

     CUMULATIVE VOLUMES      L**3       RATES FOR THIS TIME STEP      L**3/T
     ------------------                 ------------------------

           IN:                                      IN:
           ---                                      ---
             STORAGE =        1465.2754               STORAGE =          12.2308
       CONSTANT HEAD =           0.0000         CONSTANT HEAD =           0.0000
       RIVER LEAKAGE =           0.0000         RIVER LEAKAGE =           0.0000
            RECHARGE =        1910.0000              RECHARGE =           0.0000

            TOTAL IN =        3375.2754              TOTAL IN =          12.2308

          OUT:                                     OUT:
          ----                                     ----
             STORAGE =        1509.6118               STORAGE =       7.2224E-02
       CONSTANT HEAD =         381.7129         CONSTANT HEAD =           3.3999
       RIVER LEAKAGE =         692.7014         RIVER LEAKAGE =           1.7588
            RECHARGE =         791.2500              RECHARGE =           7.0000

           TOTAL OUT =        3375.2761             TOTAL OUT =          12.2308

            IN - OUT =      -7.3242E-04              IN - OUT =      -3.8147E-05

 PERCENT DISCREPANCY =          -0.00     PERCENT DISCREPANCY =          -0.00






         TIME SUMMARY AT END OF TIME STEP    1 IN STRESS PERIOD  114
                    SECONDS     MINUTES      HOURS       DAYS        YEARS
                    -----------------------------------------------------------
   TIME STEP LENGTH  86400.      1440.0      24.000      1.0000     2.73785E-03
 STRESS PERIOD TIME  86400.      1440.0      24.000      1.0000     2.73785E-03
         TOTAL TIME 9.84960E+06 1.64160E+05  2736.0      114.00     0.31211    
1
1
                            STRESS PERIOD NO.  115, LENGTH =   1.000000    
                            -----------------------------------------------

                              NUMBER OF TIME STEPS =     1

                               MULTIPLIER FOR DELT =     1.000

                            INITIAL TIME STEP SIZE =   1.000000    

 REUSING NON-PARAMETER RIVER REACHES FROM LAST STRESS PERIOD

      2 RIVER REACHES

                 RECHARGE = -1.500000E-03
 
 SOLVING FOR HEAD 

 OUTPUT CONTROL FOR STRESS PERIOD  115   TIME STEP    1
    SAVE HEAD FOR ALL LAYERS

 HEAD WILL BE SAVED ON UNIT   51 AT END OF TIME STEP    1, STRESS PERIOD  115
1
  VOLUMETRIC BUDGET FOR ENTIRE MODEL AT END OF TIME STEP    1, STRESS PERIOD 115
  ------------------------------------------------------------------------------

     CUMULATIVE VOLUMES      L**3       RATES FOR THIS TIME STEP      L**3/T
     ------------------                 ------------------------

           IN:                                      IN:
           ---                                      ---
             STORAGE =        1485.1528               STORAGE =          19.8775
       CONSTANT HEAD =           0.0000         CONSTANT HEAD =           0.0000
       RIVER LEAKAGE =           0.0000         RIVER LEAKAGE =           0.0000
            RECHARGE =        1910.0000              RECHARGE =           0.0000

            TOTAL IN =        3395.1528              TOTAL IN =          19.8775

          OUT:                                     OUT:
          ----                                     ----
             STORAGE =        1509.6118               STORAGE =           0.0000
       CONSTANT HEAD =         385.1102         CONSTANT HEAD =           3.3973
       RIVER LEAKAGE =         694.1816         RIVER LEAKAGE =           1.4803
            RECHARGE =         806.2500              RECHARGE =          15.0000

           TOTAL OUT =        3395.1536             TOTAL OUT =          19.8776

            IN - OUT =      -7.3242E-04              IN - OUT =      -1.1444E-04

 PERCENT DISCREPANCY =          -0.00     PERCENT DISCREPANCY =          -0.00






         TIME SUMMARY AT END OF TIME STEP    1 IN STRESS PERIOD  115
                    SECONDS     MINUTES      HOURS       DAYS        YEARS
                    -----------------------------------------------------------
   TIME STEP LENGTH  86400.      1440.0      24.000      1.0000     2.73785E-03
 STRESS PERIOD TIME  86400.      1440.0      24.000      1.0000     2.73785E-03
         TOTAL TIME 9.93600E+06 1.65600E+05  2760.0      115.00     0.31485    
1
1
                            STRESS PERIOD NO.  116, LENGTH =   1.000000    
                            -----------------------------------------------

                              NUMBER OF TIME STEPS =     1

                               MULTIPLIER FOR DELT =     1.000

                            INITIAL TIME STEP SIZE =   1.000000    

 REUSING NON-PARAMETER RIVER REACHES FROM LAST STRESS PERIOD

      2 RIVER REACHES

                 RECHARGE = -1.700000E-03
 
 SOLVING FOR HEAD 

 OUTPUT CONTROL FOR STRESS PERIOD  116   TIME STEP    1
    SAVE HEAD FOR ALL LAYERS

 HEAD WILL BE SAVED ON UNIT   51 AT END OF TIME STEP    1, STRESS PERIOD  116
1
  VOLUMETRIC BUDGET FOR ENTIRE MODEL AT END OF TIME STEP    1, STRESS PERIOD 116
  ------------------------------------------------------------------------------

     CUMULATIVE VOLUMES      L**3       RATES FOR THIS TIME STEP      L**3/T
     ------------------                 ------------------------

           IN:                                      IN:
           ---                                      ---
             STORAGE =        1506.7407               STORAGE =          21.5879
       CONSTANT HEAD =           0.0000         CONSTANT HEAD =           0.0000
       RIVER LEAKAGE =           0.0000         RIVER LEAKAGE =           0.0000
            RECHARGE =        1910.0000              RECHARGE =           0.0000

            TOTAL IN =        3416.7407              TOTAL IN =          21.5879

          OUT:                                     OUT:
          ----                                     ----
             STORAGE =        1509.6118               STORAGE =           0.0000
       CONSTANT HEAD =         388.5047         CONSTANT HEAD =           3.3946
       RIVER LEAKAGE =         695.3748         RIVER LEAKAGE =           1.1931
            RECHARGE =         823.2500              RECHARGE =          17.0000

           TOTAL OUT =        3416.7412             TOTAL OUT =          21.5877

            IN - OUT =      -4.8828E-04              IN - OUT =       1.8883E-04

 PERCENT DISCREPANCY =          -0.00     PERCENT DISCREPANCY =           0.00






         TIME SUMMARY AT END OF TIME STEP    1 IN STRESS PERIOD  116
                    SECONDS     MINUTES      HOURS       DAYS        YEARS
                    -----------------------------------------------------------
   TIME STEP LENGTH  86400.      1440.0      24.000      1.0000     2.73785E-03
 STRESS PERIOD TIME  86400.      1440.0      24.000      1.0000     2.73785E-03
         TOTAL TIME 1.00224E+07 1.67040E+05  2784.0      116.00     0.31759    
1
1
                            STRESS PERIOD NO.  117, LENGTH =   1.000000    
                            -----------------------------------------------

                              NUMBER OF TIME STEPS =     1

                               MULTIPLIER FOR DELT =     1.000

                            INITIAL TIME STEP SIZE =   1.000000    

 REUSING NON-PARAMETER RIVER REACHES FROM LAST STRESS PERIOD

      2 RIVER REACHES

                 RECHARGE =  1.300000E-03
 
 SOLVING FOR HEAD 

 OUTPUT CONTROL FOR STRESS PERIOD  117   TIME STEP    1
    SAVE HEAD FOR ALL LAYERS

 HEAD WILL BE SAVED ON UNIT   51 AT END OF TIME STEP    1, STRESS PERIOD  117
1
  VOLUMETRIC BUDGET FOR ENTIRE MODEL AT END OF TIME STEP    1, STRESS PERIOD 117
  ------------------------------------------------------------------------------

     CUMULATIVE VOLUMES      L**3       RATES FOR THIS TIME STEP      L**3/T
     ------------------                 ------------------------

           IN:                                      IN:
           ---                                      ---
             STORAGE =        1506.8872               STORAGE =           0.1465
       CONSTANT HEAD =           0.0000         CONSTANT HEAD =           0.0000
       RIVER LEAKAGE =           0.0000         RIVER LEAKAGE =           0.0000
            RECHARGE =        1923.0000              RECHARGE =          13.0000

            TOTAL IN =        3429.8872              TOTAL IN =          13.1465

          OUT:                                     OUT:
          ----                                     ----
             STORAGE =        1517.3607               STORAGE =           7.7489
       CONSTANT HEAD =         391.8974         CONSTANT HEAD =           3.3927
       RIVER LEAKAGE =         697.3796         RIVER LEAKAGE =           2.0048
            RECHARGE =         823.2500              RECHARGE =           0.0000

           TOTAL OUT =        3429.8877             TOTAL OUT =          13.1464

            IN - OUT =      -4.8828E-04              IN - OUT =       2.1935E-05

 PERCENT DISCREPANCY =          -0.00     PERCENT DISCREPANCY =           0.00






         TIME SUMMARY AT END OF TIME STEP    1 IN STRESS PERIOD  117
                    SECONDS     MINUTES      HOURS       DAYS        YEARS
                    -----------------------------------------------------------
   TIME STEP LENGTH  86400.      1440.0      24.000      1.0000     2.73785E-03
 STRESS PERIOD TIME  86400.      1440.0      24.000      1.0000     2.73785E-03
         TOTAL TIME 1.01088E+07 1.68480E+05  2808.0      117.00     0.32033    
1
1
                            STRESS PERIOD NO.  118, LENGTH =   1.000000    
                            -----------------------------------------------

                              NUMBER OF TIME STEPS =     1

                               MULTIPLIER FOR DELT =     1.000

                            INITIAL TIME STEP SIZE =   1.000000    

 REUSING NON-PARAMETER RIVER REACHES FROM LAST STRESS PERIOD

      2 RIVER REACHES

                 RECHARGE = -4.000000E-04
 
 SOLVING FOR HEAD 

 OUTPUT CONTROL FOR STRESS PERIOD  118   TIME STEP    1
    SAVE HEAD FOR ALL LAYERS

 HEAD WILL BE SAVED ON UNIT   51 AT END OF TIME STEP    1, STRESS PERIOD  118
1
  VOLUMETRIC BUDGET FOR ENTIRE MODEL AT END OF TIME STEP    1, STRESS PERIOD 118
  ------------------------------------------------------------------------------

     CUMULATIVE VOLUMES      L**3       RATES FOR THIS TIME STEP      L**3/T
     ------------------                 ------------------------

           IN:                                      IN:
           ---                                      ---
             STORAGE =        1516.1307               STORAGE =           9.2435
       CONSTANT HEAD =           0.0000         CONSTANT HEAD =           0.0000
       RIVER LEAKAGE =           0.0000         RIVER LEAKAGE =           0.0000
            RECHARGE =        1923.0000              RECHARGE =           0.0000

            TOTAL IN =        3439.1309              TOTAL IN =           9.2435

          OUT:                                     OUT:
          ----                                     ----
             STORAGE =        1517.3607               STORAGE =           0.0000
       CONSTANT HEAD =         395.2880         CONSTANT HEAD =           3.3905
       RIVER LEAKAGE =         699.2324         RIVER LEAKAGE =           1.8528
            RECHARGE =         827.2500              RECHARGE =           4.0000

           TOTAL OUT =        3439.1311             TOTAL OUT =           9.2433

            IN - OUT =      -2.4414E-04              IN - OUT =       1.7357E-04

 PERCENT DISCREPANCY =          -0.00     PERCENT DISCREPANCY =           0.00






         TIME SUMMARY AT END OF TIME STEP    1 IN STRESS PERIOD  118
                    SECONDS     MINUTES      HOURS       DAYS        YEARS
                    -----------------------------------------------------------
   TIME STEP LENGTH  86400.      1440.0      24.000      1.0000     2.73785E-03
 STRESS PERIOD TIME  86400.      1440.0      24.000      1.0000     2.73785E-03
         TOTAL TIME 1.01952E+07 1.69920E+05  2832.0      118.00     0.32307    
1
1
                            STRESS PERIOD NO.  119, LENGTH =   1.000000    
                            -----------------------------------------------

                              NUMBER OF TIME STEPS =     1

                               MULTIPLIER FOR DELT =     1.000

                            INITIAL TIME STEP SIZE =   1.000000    

 REUSING NON-PARAMETER RIVER REACHES FROM LAST STRESS PERIOD

      2 RIVER REACHES

                 RECHARGE = -2.000000E-03
 
 SOLVING FOR HEAD 

 OUTPUT CONTROL FOR STRESS PERIOD  119   TIME STEP    1
    SAVE HEAD FOR ALL LAYERS

 HEAD WILL BE SAVED ON UNIT   51 AT END OF TIME STEP    1, STRESS PERIOD  119
1
  VOLUMETRIC BUDGET FOR ENTIRE MODEL AT END OF TIME STEP    1, STRESS PERIOD 119
  ------------------------------------------------------------------------------

     CUMULATIVE VOLUMES      L**3       RATES FOR THIS TIME STEP      L**3/T
     ------------------                 ------------------------

           IN:                                      IN:
           ---                                      ---
             STORAGE =        1540.7526               STORAGE =          24.6218
       CONSTANT HEAD =           0.0000         CONSTANT HEAD =           0.0000
       RIVER LEAKAGE =           0.0000         RIVER LEAKAGE =           0.0000
            RECHARGE =        1923.0000              RECHARGE =           0.0000

            TOTAL IN =        3463.7524              TOTAL IN =          24.6218

          OUT:                                     OUT:
          ----                                     ----
             STORAGE =        1517.3607               STORAGE =           0.0000
       CONSTANT HEAD =         398.6757         CONSTANT HEAD =           3.3878
       RIVER LEAKAGE =         700.4664         RIVER LEAKAGE =           1.2341
            RECHARGE =         847.2500              RECHARGE =          20.0000

           TOTAL OUT =        3463.7529             TOTAL OUT =          24.6218

            IN - OUT =      -4.8828E-04              IN - OUT =      -1.3351E-05

 PERCENT DISCREPANCY =          -0.00     PERCENT DISCREPANCY =          -0.00






         TIME SUMMARY AT END OF TIME STEP    1 IN STRESS PERIOD  119
                    SECONDS     MINUTES      HOURS       DAYS        YEARS
                    -----------------------------------------------------------
   TIME STEP LENGTH  86400.      1440.0      24.000      1.0000     2.73785E-03
 STRESS PERIOD TIME  86400.      1440.0      24.000      1.0000     2.73785E-03
         TOTAL TIME 1.02816E+07 1.71360E+05  2856.0      119.00     0.32580    
1
1
                            STRESS PERIOD NO.  120, LENGTH =   1.000000    
                            -----------------------------------------------

                              NUMBER OF TIME STEPS =     1

                               MULTIPLIER FOR DELT =     1.000

                            INITIAL TIME STEP SIZE =   1.000000    

 REUSING NON-PARAMETER RIVER REACHES FROM LAST STRESS PERIOD

      2 RIVER REACHES

                 RECHARGE = -2.300000E-03
 
 SOLVING FOR HEAD 

 OUTPUT CONTROL FOR STRESS PERIOD  120   TIME STEP    1
    SAVE HEAD FOR ALL LAYERS

 HEAD WILL BE SAVED ON UNIT   51 AT END OF TIME STEP    1, STRESS PERIOD  120
1
  VOLUMETRIC BUDGET FOR ENTIRE MODEL AT END OF TIME STEP    1, STRESS PERIOD 120
  ------------------------------------------------------------------------------

     CUMULATIVE VOLUMES      L**3       RATES FOR THIS TIME STEP      L**3/T
     ------------------                 ------------------------

           IN:                                      IN:
           ---                                      ---
             STORAGE =        1567.8740               STORAGE =          27.1214
       CONSTANT HEAD =           0.0000         CONSTANT HEAD =           0.0000
       RIVER LEAKAGE =           0.0000         RIVER LEAKAGE =           0.0000
            RECHARGE =        1923.0000              RECHARGE =           0.0000

            TOTAL IN =        3490.8740              TOTAL IN =          27.1214

          OUT:                                     OUT:
          ----                                     ----
             STORAGE =        1517.3607               STORAGE =           0.0000
       CONSTANT HEAD =         402.0603         CONSTANT HEAD =           3.3846
       RIVER LEAKAGE =         701.2034         RIVER LEAKAGE =           0.7370
            RECHARGE =         870.2500              RECHARGE =          23.0000

           TOTAL OUT =        3490.8745             TOTAL OUT =          27.1216

            IN - OUT =      -4.8828E-04              IN - OUT =      -1.8692E-04

 PERCENT DISCREPANCY =          -0.00     PERCENT DISCREPANCY =          -0.00






         TIME SUMMARY AT END OF TIME STEP    1 IN STRESS PERIOD  120
                    SECONDS     MINUTES      HOURS       DAYS        YEARS
                    -----------------------------------------------------------
   TIME STEP LENGTH  86400.      1440.0      24.000      1.0000     2.73785E-03
 STRESS PERIOD TIME  86400.      1440.0      24.000      1.0000     2.73785E-03
         TOTAL TIME 1.03680E+07 1.72800E+05  2880.0      120.00     0.32854    
1
1
                            STRESS PERIOD NO.  121, LENGTH =   1.000000    
                            -----------------------------------------------

                              NUMBER OF TIME STEPS =     1

                               MULTIPLIER FOR DELT =     1.000

                            INITIAL TIME STEP SIZE =   1.000000    

 REUSING NON-PARAMETER RIVER REACHES FROM LAST STRESS PERIOD

      2 RIVER REACHES

                 RECHARGE =  1.000000E-04
 
 SOLVING FOR HEAD 

 OUTPUT CONTROL FOR STRESS PERIOD  121   TIME STEP    1
    SAVE HEAD FOR ALL LAYERS

 HEAD WILL BE SAVED ON UNIT   51 AT END OF TIME STEP    1, STRESS PERIOD  121
1
  VOLUMETRIC BUDGET FOR ENTIRE MODEL AT END OF TIME STEP    1, STRESS PERIOD 121
  ------------------------------------------------------------------------------

     CUMULATIVE VOLUMES      L**3       RATES FOR THIS TIME STEP      L**3/T
     ------------------                 ------------------------

           IN:                                      IN:
           ---                                      ---
             STORAGE =        1572.5253               STORAGE =           4.6512
       CONSTANT HEAD =           0.0000         CONSTANT HEAD =           0.0000
       RIVER LEAKAGE =           0.0000         RIVER LEAKAGE =           0.0000
            RECHARGE =        1924.0000              RECHARGE =           1.0000

            TOTAL IN =        3496.5254              TOTAL IN =           5.6512

          OUT:                                     OUT:
          ----                                     ----
             STORAGE =        1518.4303               STORAGE =           1.0696
       CONSTANT HEAD =         405.4423         CONSTANT HEAD =           3.3820
       RIVER LEAKAGE =         702.4030         RIVER LEAKAGE =           1.1996
            RECHARGE =         870.2500              RECHARGE =           0.0000

           TOTAL OUT =        3496.5256             TOTAL OUT =           5.6512

            IN - OUT =      -2.4414E-04              IN - OUT =       4.8161E-05

 PERCENT DISCREPANCY =          -0.00     PERCENT DISCREPANCY =           0.00






         TIME SUMMARY AT END OF TIME STEP    1 IN STRESS PERIOD  121
                    SECONDS     MINUTES      HOURS       DAYS        YEARS
                    -----------------------------------------------------------
   TIME STEP LENGTH  86400.      1440.0      24.000      1.0000     2.73785E-03
 STRESS PERIOD TIME  86400.      1440.0      24.000      1.0000     2.73785E-03
         TOTAL TIME 1.04544E+07 1.74240E+05  2904.0      121.00     0.33128    
1
1
                            STRESS PERIOD NO.  122, LENGTH =   1.000000    
                            -----------------------------------------------

                              NUMBER OF TIME STEPS =     1

                               MULTIPLIER FOR DELT =     1.000

                            INITIAL TIME STEP SIZE =   1.000000    

 REUSING NON-PARAMETER RIVER REACHES FROM LAST STRESS PERIOD

      2 RIVER REACHES

                 RECHARGE = -2.475000E-03
 
 SOLVING FOR HEAD 

 OUTPUT CONTROL FOR STRESS PERIOD  122   TIME STEP    1
    SAVE HEAD FOR ALL LAYERS

 HEAD WILL BE SAVED ON UNIT   51 AT END OF TIME STEP    1, STRESS PERIOD  122
1
  VOLUMETRIC BUDGET FOR ENTIRE MODEL AT END OF TIME STEP    1, STRESS PERIOD 122
  ------------------------------------------------------------------------------

     CUMULATIVE VOLUMES      L**3       RATES FOR THIS TIME STEP      L**3/T
     ------------------                 ------------------------

           IN:                                      IN:
           ---                                      ---
             STORAGE =        1601.1591               STORAGE =          28.6338
       CONSTANT HEAD =           0.0000         CONSTANT HEAD =           0.0000
       RIVER LEAKAGE =           0.0000         RIVER LEAKAGE =           0.0000
            RECHARGE =        1924.0000              RECHARGE =           0.0000

            TOTAL IN =        3525.1592              TOTAL IN =          28.6338

          OUT:                                     OUT:
          ----                                     ----
             STORAGE =        1518.4303               STORAGE =           0.0000
       CONSTANT HEAD =         408.8210         CONSTANT HEAD =           3.3787
       RIVER LEAKAGE =         702.9079         RIVER LEAKAGE =           0.5049
            RECHARGE =         895.0000              RECHARGE =          24.7500

           TOTAL OUT =        3525.1592             TOTAL OUT =          28.6335

            IN - OUT =           0.0000              IN - OUT =       2.3270E-04

 PERCENT DISCREPANCY =           0.00     PERCENT DISCREPANCY =           0.00






         TIME SUMMARY AT END OF TIME STEP    1 IN STRESS PERIOD  122
                    SECONDS     MINUTES      HOURS       DAYS        YEARS
                    -----------------------------------------------------------
   TIME STEP LENGTH  86400.      1440.0      24.000      1.0000     2.73785E-03
 STRESS PERIOD TIME  86400.      1440.0      24.000      1.0000     2.73785E-03
         TOTAL TIME 1.05408E+07 1.75680E+05  2928.0      122.00     0.33402    
1
1
                            STRESS PERIOD NO.  123, LENGTH =   1.000000    
                            -----------------------------------------------

                              NUMBER OF TIME STEPS =     1

                               MULTIPLIER FOR DELT =     1.000

                            INITIAL TIME STEP SIZE =   1.000000    

 REUSING NON-PARAMETER RIVER REACHES FROM LAST STRESS PERIOD

      2 RIVER REACHES

                 RECHARGE = -3.600000E-03
 
 SOLVING FOR HEAD 

 OUTPUT CONTROL FOR STRESS PERIOD  123   TIME STEP    1
    SAVE HEAD FOR ALL LAYERS

 HEAD WILL BE SAVED ON UNIT   51 AT END OF TIME STEP    1, STRESS PERIOD  123
1
  VOLUMETRIC BUDGET FOR ENTIRE MODEL AT END OF TIME STEP    1, STRESS PERIOD 123
  ------------------------------------------------------------------------------

     CUMULATIVE VOLUMES      L**3       RATES FOR THIS TIME STEP      L**3/T
     ------------------                 ------------------------

           IN:                                      IN:
           ---                                      ---
             STORAGE =        1640.2072               STORAGE =          39.0481
       CONSTANT HEAD =           0.0000         CONSTANT HEAD =           0.0000
       RIVER LEAKAGE =           0.3263         RIVER LEAKAGE =           0.3263
            RECHARGE =        1924.0000              RECHARGE =           0.0000

            TOTAL IN =        3564.5334              TOTAL IN =          39.3744

          OUT:                                     OUT:
          ----                                     ----
             STORAGE =        1518.4303               STORAGE =           0.0000
       CONSTANT HEAD =         412.1956         CONSTANT HEAD =           3.3746
       RIVER LEAKAGE =         702.9079         RIVER LEAKAGE =           0.0000
            RECHARGE =         931.0000              RECHARGE =          36.0000

           TOTAL OUT =        3564.5337             TOTAL OUT =          39.3746

            IN - OUT =      -2.4414E-04              IN - OUT =      -1.7929E-04

 PERCENT DISCREPANCY =          -0.00     PERCENT DISCREPANCY =          -0.00






         TIME SUMMARY AT END OF TIME STEP    1 IN STRESS PERIOD  123
                    SECONDS     MINUTES      HOURS       DAYS        YEARS
                    -----------------------------------------------------------
   TIME STEP LENGTH  86400.      1440.0      24.000      1.0000     2.73785E-03
 STRESS PERIOD TIME  86400.      1440.0      24.000      1.0000     2.73785E-03
         TOTAL TIME 1.06272E+07 1.77120E+05  2952.0      123.00     0.33676    
1
1
                            STRESS PERIOD NO.  124, LENGTH =   1.000000    
                            -----------------------------------------------

                              NUMBER OF TIME STEPS =     1

                               MULTIPLIER FOR DELT =     1.000

                            INITIAL TIME STEP SIZE =   1.000000    

 REUSING NON-PARAMETER RIVER REACHES FROM LAST STRESS PERIOD

      2 RIVER REACHES

                 RECHARGE = -4.000000E-04
 
 SOLVING FOR HEAD 

 OUTPUT CONTROL FOR STRESS PERIOD  124   TIME STEP    1
    SAVE HEAD FOR ALL LAYERS

 HEAD WILL BE SAVED ON UNIT   51 AT END OF TIME STEP    1, STRESS PERIOD  124
1
  VOLUMETRIC BUDGET FOR ENTIRE MODEL AT END OF TIME STEP    1, STRESS PERIOD 124
  ------------------------------------------------------------------------------

     CUMULATIVE VOLUMES      L**3       RATES FOR THIS TIME STEP      L**3/T
     ------------------                 ------------------------

           IN:                                      IN:
           ---                                      ---
             STORAGE =        1648.5415               STORAGE =           8.3343
       CONSTANT HEAD =           0.0000         CONSTANT HEAD =           0.0000
       RIVER LEAKAGE =           0.3263         RIVER LEAKAGE =           0.0000
            RECHARGE =        1924.0000              RECHARGE =           0.0000

            TOTAL IN =        3572.8677              TOTAL IN =           8.3343

          OUT:                                     OUT:
          ----                                     ----
             STORAGE =        1519.1997               STORAGE =           0.7694
       CONSTANT HEAD =         415.5668         CONSTANT HEAD =           3.3713
       RIVER LEAKAGE =         703.1014         RIVER LEAKAGE =           0.1935
            RECHARGE =         935.0000              RECHARGE =           4.0000

           TOTAL OUT =        3572.8679             TOTAL OUT =           8.3342

            IN - OUT =      -2.4414E-04              IN - OUT =       1.4210E-04

 PERCENT DISCREPANCY =          -0.00     PERCENT DISCREPANCY =           0.00






         TIME SUMMARY AT END OF TIME STEP    1 IN STRESS PERIOD  124
                    SECONDS     MINUTES      HOURS       DAYS        YEARS
                    -----------------------------------------------------------
   TIME STEP LENGTH  86400.      1440.0      24.000      1.0000     2.73785E-03
 STRESS PERIOD TIME  86400.      1440.0      24.000      1.0000     2.73785E-03
         TOTAL TIME 1.07136E+07 1.78560E+05  2976.0      124.00     0.33949    
1
1
                            STRESS PERIOD NO.  125, LENGTH =   1.000000    
                            -----------------------------------------------

                              NUMBER OF TIME STEPS =     1

                               MULTIPLIER FOR DELT =     1.000

                            INITIAL TIME STEP SIZE =   1.000000    

 REUSING NON-PARAMETER RIVER REACHES FROM LAST STRESS PERIOD

      2 RIVER REACHES

                 RECHARGE =  3.300000E-03
 
 SOLVING FOR HEAD 

 OUTPUT CONTROL FOR STRESS PERIOD  125   TIME STEP    1
    SAVE HEAD FOR ALL LAYERS

 HEAD WILL BE SAVED ON UNIT   51 AT END OF TIME STEP    1, STRESS PERIOD  125
1
  VOLUMETRIC BUDGET FOR ENTIRE MODEL AT END OF TIME STEP    1, STRESS PERIOD 125
  ------------------------------------------------------------------------------

     CUMULATIVE VOLUMES      L**3       RATES FOR THIS TIME STEP      L**3/T
     ------------------                 ------------------------

           IN:                                      IN:
           ---                                      ---
             STORAGE =        1648.7372               STORAGE =           0.1957
       CONSTANT HEAD =           0.0000         CONSTANT HEAD =           0.0000
       RIVER LEAKAGE =           0.3263         RIVER LEAKAGE =           0.0000
            RECHARGE =        1957.0000              RECHARGE =          33.0000

            TOTAL IN =        3606.0635              TOTAL IN =          33.1957

          OUT:                                     OUT:
          ----                                     ----
             STORAGE =        1547.3413               STORAGE =          28.1416
       CONSTANT HEAD =         418.9362         CONSTANT HEAD =           3.3693
       RIVER LEAKAGE =         704.7861         RIVER LEAKAGE =           1.6848
            RECHARGE =         935.0000              RECHARGE =           0.0000

           TOTAL OUT =        3606.0635             TOTAL OUT =          33.1957

            IN - OUT =           0.0000              IN - OUT =      -1.1444E-05

 PERCENT DISCREPANCY =           0.00     PERCENT DISCREPANCY =          -0.00






         TIME SUMMARY AT END OF TIME STEP    1 IN STRESS PERIOD  125
                    SECONDS     MINUTES      HOURS       DAYS        YEARS
                    -----------------------------------------------------------
   TIME STEP LENGTH  86400.      1440.0      24.000      1.0000     2.73785E-03
 STRESS PERIOD TIME  86400.      1440.0      24.000      1.0000     2.73785E-03
         TOTAL TIME 1.08000E+07 1.80000E+05  3000.0      125.00     0.34223    
1
1
                            STRESS PERIOD NO.  126, LENGTH =   1.000000    
                            -----------------------------------------------

                              NUMBER OF TIME STEPS =     1

                               MULTIPLIER FOR DELT =     1.000

                            INITIAL TIME STEP SIZE =   1.000000    

 REUSING NON-PARAMETER RIVER REACHES FROM LAST STRESS PERIOD

      2 RIVER REACHES

                 RECHARGE =  2.200000E-03
 
 SOLVING FOR HEAD 

 OUTPUT CONTROL FOR STRESS PERIOD  126   TIME STEP    1
    SAVE HEAD FOR ALL LAYERS

 HEAD WILL BE SAVED ON UNIT   51 AT END OF TIME STEP    1, STRESS PERIOD  126
1
  VOLUMETRIC BUDGET FOR ENTIRE MODEL AT END OF TIME STEP    1, STRESS PERIOD 126
  ------------------------------------------------------------------------------

     CUMULATIVE VOLUMES      L**3       RATES FOR THIS TIME STEP      L**3/T
     ------------------                 ------------------------

           IN:                                      IN:
           ---                                      ---
             STORAGE =        1648.9200               STORAGE =           0.1829
       CONSTANT HEAD =           0.0000         CONSTANT HEAD =           0.0000
       RIVER LEAKAGE =           0.3263         RIVER LEAKAGE =           0.0000
            RECHARGE =        1979.0000              RECHARGE =          22.0000

            TOTAL IN =        3628.2463              TOTAL IN =          22.1829

          OUT:                                     OUT:
          ----                                     ----
             STORAGE =        1563.9481               STORAGE =          16.6069
       CONSTANT HEAD =         422.3039         CONSTANT HEAD =           3.3677
       RIVER LEAKAGE =         706.9943         RIVER LEAKAGE =           2.2081
            RECHARGE =         935.0000              RECHARGE =           0.0000

           TOTAL OUT =        3628.2461             TOTAL OUT =          22.1827

            IN - OUT =       2.4414E-04              IN - OUT =       1.9836E-04

 PERCENT DISCREPANCY =           0.00     PERCENT DISCREPANCY =           0.00






         TIME SUMMARY AT END OF TIME STEP    1 IN STRESS PERIOD  126
                    SECONDS     MINUTES      HOURS       DAYS        YEARS
                    -----------------------------------------------------------
   TIME STEP LENGTH  86400.      1440.0      24.000      1.0000     2.73785E-03
 STRESS PERIOD TIME  86400.      1440.0      24.000      1.0000     2.73785E-03
         TOTAL TIME 1.08864E+07 1.81440E+05  3024.0      126.00     0.34497    
1
1
                            STRESS PERIOD NO.  127, LENGTH =   1.000000    
                            -----------------------------------------------

                              NUMBER OF TIME STEPS =     1

                               MULTIPLIER FOR DELT =     1.000

                            INITIAL TIME STEP SIZE =   1.000000    

 REUSING NON-PARAMETER RIVER REACHES FROM LAST STRESS PERIOD

      2 RIVER REACHES

                 RECHARGE = -2.075000E-03
 
 SOLVING FOR HEAD 

 OUTPUT CONTROL FOR STRESS PERIOD  127   TIME STEP    1
    SAVE HEAD FOR ALL LAYERS

 HEAD WILL BE SAVED ON UNIT   51 AT END OF TIME STEP    1, STRESS PERIOD  127
1
  VOLUMETRIC BUDGET FOR ENTIRE MODEL AT END OF TIME STEP    1, STRESS PERIOD 127
  ------------------------------------------------------------------------------

     CUMULATIVE VOLUMES      L**3       RATES FOR THIS TIME STEP      L**3/T
     ------------------                 ------------------------

           IN:                                      IN:
           ---                                      ---
             STORAGE =        1674.1907               STORAGE =          25.2706
       CONSTANT HEAD =           0.0000         CONSTANT HEAD =           0.0000
       RIVER LEAKAGE =           0.3263         RIVER LEAKAGE =           0.0000
            RECHARGE =        1979.0000              RECHARGE =           0.0000

            TOTAL IN =        3653.5171              TOTAL IN =          25.2706

          OUT:                                     OUT:
          ----                                     ----
             STORAGE =        1563.9481               STORAGE =           0.0000
       CONSTANT HEAD =         425.6687         CONSTANT HEAD =           3.3648
       RIVER LEAKAGE =         708.1500         RIVER LEAKAGE =           1.1557
            RECHARGE =         955.7500              RECHARGE =          20.7500

           TOTAL OUT =        3653.5168             TOTAL OUT =          25.2705

            IN - OUT =       2.4414E-04              IN - OUT =       2.4796E-05

 PERCENT DISCREPANCY =           0.00     PERCENT DISCREPANCY =           0.00






         TIME SUMMARY AT END OF TIME STEP    1 IN STRESS PERIOD  127
                    SECONDS     MINUTES      HOURS       DAYS        YEARS
                    -----------------------------------------------------------
   TIME STEP LENGTH  86400.      1440.0      24.000      1.0000     2.73785E-03
 STRESS PERIOD TIME  86400.      1440.0      24.000      1.0000     2.73785E-03
         TOTAL TIME 1.09728E+07 1.82880E+05  3048.0      127.00     0.34771    
1
1
                            STRESS PERIOD NO.  128, LENGTH =   1.000000    
                            -----------------------------------------------

                              NUMBER OF TIME STEPS =     1

                               MULTIPLIER FOR DELT =     1.000

                            INITIAL TIME STEP SIZE =   1.000000    

 REUSING NON-PARAMETER RIVER REACHES FROM LAST STRESS PERIOD

      2 RIVER REACHES

                 RECHARGE = -9.750000E-04
 
 SOLVING FOR HEAD 

 OUTPUT CONTROL FOR STRESS PERIOD  128   TIME STEP    1
    SAVE HEAD FOR ALL LAYERS

 HEAD WILL BE SAVED ON UNIT   51 AT END OF TIME STEP    1, STRESS PERIOD  128
1
  VOLUMETRIC BUDGET FOR ENTIRE MODEL AT END OF TIME STEP    1, STRESS PERIOD 128
  ------------------------------------------------------------------------------

     CUMULATIVE VOLUMES      L**3       RATES FOR THIS TIME STEP      L**3/T
     ------------------                 ------------------------

           IN:                                      IN:
           ---                                      ---
             STORAGE =        1688.2831               STORAGE =          14.0924
       CONSTANT HEAD =           0.0000         CONSTANT HEAD =           0.0000
       RIVER LEAKAGE =           0.3263         RIVER LEAKAGE =           0.0000
            RECHARGE =        1979.0000              RECHARGE =           0.0000

            TOTAL IN =        3667.6094              TOTAL IN =          14.0924

          OUT:                                     OUT:
          ----                                     ----
             STORAGE =        1563.9481               STORAGE =           0.0000
       CONSTANT HEAD =         429.0306         CONSTANT HEAD =           3.3619
       RIVER LEAKAGE =         709.1306         RIVER LEAKAGE =           0.9806
            RECHARGE =         965.5000              RECHARGE =           9.7500

           TOTAL OUT =        3667.6094             TOTAL OUT =          14.0925

            IN - OUT =           0.0000              IN - OUT =      -1.5736E-04

 PERCENT DISCREPANCY =           0.00     PERCENT DISCREPANCY =          -0.00






         TIME SUMMARY AT END OF TIME STEP    1 IN STRESS PERIOD  128
                    SECONDS     MINUTES      HOURS       DAYS        YEARS
                    -----------------------------------------------------------
   TIME STEP LENGTH  86400.      1440.0      24.000      1.0000     2.73785E-03
 STRESS PERIOD TIME  86400.      1440.0      24.000      1.0000     2.73785E-03
         TOTAL TIME 1.10592E+07 1.84320E+05  3072.0      128.00     0.35044    
1
1
                            STRESS PERIOD NO.  129, LENGTH =   1.000000    
                            -----------------------------------------------

                              NUMBER OF TIME STEPS =     1

                               MULTIPLIER FOR DELT =     1.000

                            INITIAL TIME STEP SIZE =   1.000000    

 REUSING NON-PARAMETER RIVER REACHES FROM LAST STRESS PERIOD

      2 RIVER REACHES

                 RECHARGE = -3.800000E-03
 
 SOLVING FOR HEAD 

 OUTPUT CONTROL FOR STRESS PERIOD  129   TIME STEP    1
    SAVE HEAD FOR ALL LAYERS

 HEAD WILL BE SAVED ON UNIT   51 AT END OF TIME STEP    1, STRESS PERIOD  129
1
  VOLUMETRIC BUDGET FOR ENTIRE MODEL AT END OF TIME STEP    1, STRESS PERIOD 129
  ------------------------------------------------------------------------------

     CUMULATIVE VOLUMES      L**3       RATES FOR THIS TIME STEP      L**3/T
     ------------------                 ------------------------

           IN:                                      IN:
           ---                                      ---
             STORAGE =        1729.4757               STORAGE =          41.1926
       CONSTANT HEAD =           0.0000         CONSTANT HEAD =           0.0000
       RIVER LEAKAGE =           0.4917         RIVER LEAKAGE =           0.1654
            RECHARGE =        1979.0000              RECHARGE =           0.0000

            TOTAL IN =        3708.9673              TOTAL IN =          41.3580

          OUT:                                     OUT:
          ----                                     ----
             STORAGE =        1563.9481               STORAGE =           0.0000
       CONSTANT HEAD =         432.3886         CONSTANT HEAD =           3.3579
       RIVER LEAKAGE =         709.1306         RIVER LEAKAGE =           0.0000
            RECHARGE =        1003.5000              RECHARGE =          38.0000

           TOTAL OUT =        3708.9673             TOTAL OUT =          41.3580

            IN - OUT =           0.0000              IN - OUT =       8.0109E-05

 PERCENT DISCREPANCY =           0.00     PERCENT DISCREPANCY =           0.00






         TIME SUMMARY AT END OF TIME STEP    1 IN STRESS PERIOD  129
                    SECONDS     MINUTES      HOURS       DAYS        YEARS
                    -----------------------------------------------------------
   TIME STEP LENGTH  86400.      1440.0      24.000      1.0000     2.73785E-03
 STRESS PERIOD TIME  86400.      1440.0      24.000      1.0000     2.73785E-03
         TOTAL TIME 1.11456E+07 1.85760E+05  3096.0      129.00     0.35318    
1
1
                            STRESS PERIOD NO.  130, LENGTH =   1.000000    
                            -----------------------------------------------

                              NUMBER OF TIME STEPS =     1

                               MULTIPLIER FOR DELT =     1.000

                            INITIAL TIME STEP SIZE =   1.000000    

 REUSING NON-PARAMETER RIVER REACHES FROM LAST STRESS PERIOD

      2 RIVER REACHES

                 RECHARGE = -1.900000E-03
 
 SOLVING FOR HEAD 

 OUTPUT CONTROL FOR STRESS PERIOD  130   TIME STEP    1
    SAVE HEAD FOR ALL LAYERS

 HEAD WILL BE SAVED ON UNIT   51 AT END OF TIME STEP    1, STRESS PERIOD  130
1
  VOLUMETRIC BUDGET FOR ENTIRE MODEL AT END OF TIME STEP    1, STRESS PERIOD 130
  ------------------------------------------------------------------------------

     CUMULATIVE VOLUMES      L**3       RATES FOR THIS TIME STEP      L**3/T
     ------------------                 ------------------------

           IN:                                      IN:
           ---                                      ---
             STORAGE =        1751.5757               STORAGE =          22.0999
       CONSTANT HEAD =           0.0000         CONSTANT HEAD =           0.0000
       RIVER LEAKAGE =           0.7460         RIVER LEAKAGE =           0.2543
            RECHARGE =        1979.0000              RECHARGE =           0.0000

            TOTAL IN =        3731.3218              TOTAL IN =          22.3542

          OUT:                                     OUT:
          ----                                     ----
             STORAGE =        1563.9481               STORAGE =           0.0000
       CONSTANT HEAD =         435.7427         CONSTANT HEAD =           3.3541
       RIVER LEAKAGE =         709.1306         RIVER LEAKAGE =           0.0000
            RECHARGE =        1022.5000              RECHARGE =          19.0000

           TOTAL OUT =        3731.3213             TOTAL OUT =          22.3541

            IN - OUT =       4.8828E-04              IN - OUT =       1.1253E-04

 PERCENT DISCREPANCY =           0.00     PERCENT DISCREPANCY =           0.00






         TIME SUMMARY AT END OF TIME STEP    1 IN STRESS PERIOD  130
                    SECONDS     MINUTES      HOURS       DAYS        YEARS
                    -----------------------------------------------------------
   TIME STEP LENGTH  86400.      1440.0      24.000      1.0000     2.73785E-03
 STRESS PERIOD TIME  86400.      1440.0      24.000      1.0000     2.73785E-03
         TOTAL TIME 1.12320E+07 1.87200E+05  3120.0      130.00     0.35592    
1
1
                            STRESS PERIOD NO.  131, LENGTH =   1.000000    
                            -----------------------------------------------

                              NUMBER OF TIME STEPS =     1

                               MULTIPLIER FOR DELT =     1.000

                            INITIAL TIME STEP SIZE =   1.000000    

 REUSING NON-PARAMETER RIVER REACHES FROM LAST STRESS PERIOD

      2 RIVER REACHES

                 RECHARGE = -2.075000E-03
 
 SOLVING FOR HEAD 

 OUTPUT CONTROL FOR STRESS PERIOD  131   TIME STEP    1
    SAVE HEAD FOR ALL LAYERS

 HEAD WILL BE SAVED ON UNIT   51 AT END OF TIME STEP    1, STRESS PERIOD  131
1
  VOLUMETRIC BUDGET FOR ENTIRE MODEL AT END OF TIME STEP    1, STRESS PERIOD 131
  ------------------------------------------------------------------------------

     CUMULATIVE VOLUMES      L**3       RATES FOR THIS TIME STEP      L**3/T
     ------------------                 ------------------------

           IN:                                      IN:
           ---                                      ---
             STORAGE =        1775.1759               STORAGE =          23.6003
       CONSTANT HEAD =           0.0000         CONSTANT HEAD =           0.0000
       RIVER LEAKAGE =           1.2458         RIVER LEAKAGE =           0.4998
            RECHARGE =        1979.0000              RECHARGE =           0.0000

            TOTAL IN =        3755.4219              TOTAL IN =          24.1001

          OUT:                                     OUT:
          ----                                     ----
             STORAGE =        1563.9481               STORAGE =           0.0000
       CONSTANT HEAD =         439.0927         CONSTANT HEAD =           3.3500
       RIVER LEAKAGE =         709.1306         RIVER LEAKAGE =           0.0000
            RECHARGE =        1043.2500              RECHARGE =          20.7500

           TOTAL OUT =        3755.4214             TOTAL OUT =          24.1000

            IN - OUT =       4.8828E-04              IN - OUT =       9.5367E-06

 PERCENT DISCREPANCY =           0.00     PERCENT DISCREPANCY =           0.00






         TIME SUMMARY AT END OF TIME STEP    1 IN STRESS PERIOD  131
                    SECONDS     MINUTES      HOURS       DAYS        YEARS
                    -----------------------------------------------------------
   TIME STEP LENGTH  86400.      1440.0      24.000      1.0000     2.73785E-03
 STRESS PERIOD TIME  86400.      1440.0      24.000      1.0000     2.73785E-03
         TOTAL TIME 1.13184E+07 1.88640E+05  3144.0      131.00     0.35866    
1
1
                            STRESS PERIOD NO.  132, LENGTH =   1.000000    
                            -----------------------------------------------

                              NUMBER OF TIME STEPS =     1

                               MULTIPLIER FOR DELT =     1.000

                            INITIAL TIME STEP SIZE =   1.000000    

 REUSING NON-PARAMETER RIVER REACHES FROM LAST STRESS PERIOD

      2 RIVER REACHES

                 RECHARGE = -2.500000E-03
 
 SOLVING FOR HEAD 

 OUTPUT CONTROL FOR STRESS PERIOD  132   TIME STEP    1
    SAVE HEAD FOR ALL LAYERS

 HEAD WILL BE SAVED ON UNIT   51 AT END OF TIME STEP    1, STRESS PERIOD  132
1
  VOLUMETRIC BUDGET FOR ENTIRE MODEL AT END OF TIME STEP    1, STRESS PERIOD 132
  ------------------------------------------------------------------------------

     CUMULATIVE VOLUMES      L**3       RATES FOR THIS TIME STEP      L**3/T
     ------------------                 ------------------------

           IN:                                      IN:
           ---                                      ---
             STORAGE =        1802.6436               STORAGE =          27.4677
       CONSTANT HEAD =           0.0000         CONSTANT HEAD =           0.0000
       RIVER LEAKAGE =           2.1239         RIVER LEAKAGE =           0.8781
            RECHARGE =        1979.0000              RECHARGE =           0.0000

            TOTAL IN =        3783.7676              TOTAL IN =          28.3458

          OUT:                                     OUT:
          ----                                     ----
             STORAGE =        1563.9481               STORAGE =           0.0000
       CONSTANT HEAD =         442.4384         CONSTANT HEAD =           3.3457
       RIVER LEAKAGE =         709.1306         RIVER LEAKAGE =           0.0000
            RECHARGE =        1068.2500              RECHARGE =          25.0000

           TOTAL OUT =        3783.7671             TOTAL OUT =          28.3457

            IN - OUT =       4.8828E-04              IN - OUT =       1.0300E-04

 PERCENT DISCREPANCY =           0.00     PERCENT DISCREPANCY =           0.00






         TIME SUMMARY AT END OF TIME STEP    1 IN STRESS PERIOD  132
                    SECONDS     MINUTES      HOURS       DAYS        YEARS
                    -----------------------------------------------------------
   TIME STEP LENGTH  86400.      1440.0      24.000      1.0000     2.73785E-03
 STRESS PERIOD TIME  86400.      1440.0      24.000      1.0000     2.73785E-03
         TOTAL TIME 1.14048E+07 1.90080E+05  3168.0      132.00     0.36140    
1
1
                            STRESS PERIOD NO.  133, LENGTH =   1.000000    
                            -----------------------------------------------

                              NUMBER OF TIME STEPS =     1

                               MULTIPLIER FOR DELT =     1.000

                            INITIAL TIME STEP SIZE =   1.000000    

 REUSING NON-PARAMETER RIVER REACHES FROM LAST STRESS PERIOD

      2 RIVER REACHES

                 RECHARGE = -3.400000E-03
 
 SOLVING FOR HEAD 

 OUTPUT CONTROL FOR STRESS PERIOD  133   TIME STEP    1
    SAVE HEAD FOR ALL LAYERS

 HEAD WILL BE SAVED ON UNIT   51 AT END OF TIME STEP    1, STRESS PERIOD  133
1
  VOLUMETRIC BUDGET FOR ENTIRE MODEL AT END OF TIME STEP    1, STRESS PERIOD 133
  ------------------------------------------------------------------------------

     CUMULATIVE VOLUMES      L**3       RATES FOR THIS TIME STEP      L**3/T
     ------------------                 ------------------------

           IN:                                      IN:
           ---                                      ---
             STORAGE =        1838.4845               STORAGE =          35.8410
       CONSTANT HEAD =           0.0000         CONSTANT HEAD =           0.0000
       RIVER LEAKAGE =           3.6237         RIVER LEAKAGE =           1.4998
            RECHARGE =        1979.0000              RECHARGE =           0.0000

            TOTAL IN =        3821.1082              TOTAL IN =          37.3408

          OUT:                                     OUT:
          ----                                     ----
             STORAGE =        1563.9481               STORAGE =           0.0000
       CONSTANT HEAD =         445.7793         CONSTANT HEAD =           3.3408
       RIVER LEAKAGE =         709.1306         RIVER LEAKAGE =           0.0000
            RECHARGE =        1102.2500              RECHARGE =          34.0000

           TOTAL OUT =        3821.1079             TOTAL OUT =          37.3408

            IN - OUT =       2.4414E-04              IN - OUT =      -8.0109E-05

 PERCENT DISCREPANCY =           0.00     PERCENT DISCREPANCY =          -0.00






         TIME SUMMARY AT END OF TIME STEP    1 IN STRESS PERIOD  133
                    SECONDS     MINUTES      HOURS       DAYS        YEARS
                    -----------------------------------------------------------
   TIME STEP LENGTH  86400.      1440.0      24.000      1.0000     2.73785E-03
 STRESS PERIOD TIME  86400.      1440.0      24.000      1.0000     2.73785E-03
         TOTAL TIME 1.14912E+07 1.91520E+05  3192.0      133.00     0.36413    
1
1
                            STRESS PERIOD NO.  134, LENGTH =   1.000000    
                            -----------------------------------------------

                              NUMBER OF TIME STEPS =     1

                               MULTIPLIER FOR DELT =     1.000

                            INITIAL TIME STEP SIZE =   1.000000    

 REUSING NON-PARAMETER RIVER REACHES FROM LAST STRESS PERIOD

      2 RIVER REACHES

                 RECHARGE = -3.700000E-03
 
 SOLVING FOR HEAD 

 OUTPUT CONTROL FOR STRESS PERIOD  134   TIME STEP    1
    SAVE HEAD FOR ALL LAYERS

 HEAD WILL BE SAVED ON UNIT   51 AT END OF TIME STEP    1, STRESS PERIOD  134
1
  VOLUMETRIC BUDGET FOR ENTIRE MODEL AT END OF TIME STEP    1, STRESS PERIOD 134
  ------------------------------------------------------------------------------

     CUMULATIVE VOLUMES      L**3       RATES FOR THIS TIME STEP      L**3/T
     ------------------                 ------------------------

           IN:                                      IN:
           ---                                      ---
             STORAGE =        1876.7461               STORAGE =          38.2615
       CONSTANT HEAD =           0.0000         CONSTANT HEAD =           0.0000
       RIVER LEAKAGE =           5.6979         RIVER LEAKAGE =           2.0742
            RECHARGE =        1979.0000              RECHARGE =           0.0000

            TOTAL IN =        3861.4438              TOTAL IN =          40.3357

          OUT:                                     OUT:
          ----                                     ----
             STORAGE =        1563.9481               STORAGE =           0.0000
       CONSTANT HEAD =         449.1148         CONSTANT HEAD =           3.3355
       RIVER LEAKAGE =         709.1306         RIVER LEAKAGE =           0.0000
            RECHARGE =        1139.2500              RECHARGE =          37.0000

           TOTAL OUT =        3861.4436             TOTAL OUT =          40.3355

            IN - OUT =       2.4414E-04              IN - OUT =       1.8692E-04

 PERCENT DISCREPANCY =           0.00     PERCENT DISCREPANCY =           0.00






         TIME SUMMARY AT END OF TIME STEP    1 IN STRESS PERIOD  134
                    SECONDS     MINUTES      HOURS       DAYS        YEARS
                    -----------------------------------------------------------
   TIME STEP LENGTH  86400.      1440.0      24.000      1.0000     2.73785E-03
 STRESS PERIOD TIME  86400.      1440.0      24.000      1.0000     2.73785E-03
         TOTAL TIME 1.15776E+07 1.92960E+05  3216.0      134.00     0.36687    
1
1
                            STRESS PERIOD NO.  135, LENGTH =   1.000000    
                            -----------------------------------------------

                              NUMBER OF TIME STEPS =     1

                               MULTIPLIER FOR DELT =     1.000

                            INITIAL TIME STEP SIZE =   1.000000    

 REUSING NON-PARAMETER RIVER REACHES FROM LAST STRESS PERIOD

      2 RIVER REACHES

                 RECHARGE =  1.040000E-02
 
 SOLVING FOR HEAD 

 OUTPUT CONTROL FOR STRESS PERIOD  135   TIME STEP    1
    SAVE HEAD FOR ALL LAYERS

 HEAD WILL BE SAVED ON UNIT   51 AT END OF TIME STEP    1, STRESS PERIOD  135
1
  VOLUMETRIC BUDGET FOR ENTIRE MODEL AT END OF TIME STEP    1, STRESS PERIOD 135
  ------------------------------------------------------------------------------

     CUMULATIVE VOLUMES      L**3       RATES FOR THIS TIME STEP      L**3/T
     ------------------                 ------------------------

           IN:                                      IN:
           ---                                      ---
             STORAGE =        1876.9796               STORAGE =           0.2335
       CONSTANT HEAD =           0.0000         CONSTANT HEAD =           0.0000
       RIVER LEAKAGE =           5.6979         RIVER LEAKAGE =           0.0000
            RECHARGE =        2083.0000              RECHARGE =         104.0000

            TOTAL IN =        3965.6775              TOTAL IN =         104.2335

          OUT:                                     OUT:
          ----                                     ----
             STORAGE =        1662.4768               STORAGE =          98.5287
       CONSTANT HEAD =         452.4497         CONSTANT HEAD =           3.3349
       RIVER LEAKAGE =         711.5006         RIVER LEAKAGE =           2.3700
            RECHARGE =        1139.2500              RECHARGE =           0.0000

           TOTAL OUT =        3965.6772             TOTAL OUT =         104.2335

            IN - OUT =       2.4414E-04              IN - OUT =      -6.8665E-05

 PERCENT DISCREPANCY =           0.00     PERCENT DISCREPANCY =          -0.00






         TIME SUMMARY AT END OF TIME STEP    1 IN STRESS PERIOD  135
                    SECONDS     MINUTES      HOURS       DAYS        YEARS
                    -----------------------------------------------------------
   TIME STEP LENGTH  86400.      1440.0      24.000      1.0000     2.73785E-03
 STRESS PERIOD TIME  86400.      1440.0      24.000      1.0000     2.73785E-03
         TOTAL TIME 1.16640E+07 1.94400E+05  3240.0      135.00     0.36961    
1
1
                            STRESS PERIOD NO.  136, LENGTH =   1.000000    
                            -----------------------------------------------

                              NUMBER OF TIME STEPS =     1

                               MULTIPLIER FOR DELT =     1.000

                            INITIAL TIME STEP SIZE =   1.000000    

 REUSING NON-PARAMETER RIVER REACHES FROM LAST STRESS PERIOD

      2 RIVER REACHES

                 RECHARGE =  8.000000E-03
 
 SOLVING FOR HEAD 

 OUTPUT CONTROL FOR STRESS PERIOD  136   TIME STEP    1
    SAVE HEAD FOR ALL LAYERS

 HEAD WILL BE SAVED ON UNIT   51 AT END OF TIME STEP    1, STRESS PERIOD  136
1
  VOLUMETRIC BUDGET FOR ENTIRE MODEL AT END OF TIME STEP    1, STRESS PERIOD 136
  ------------------------------------------------------------------------------

     CUMULATIVE VOLUMES      L**3       RATES FOR THIS TIME STEP      L**3/T
     ------------------                 ------------------------

           IN:                                      IN:
           ---                                      ---
             STORAGE =        1877.1649               STORAGE =           0.1853
       CONSTANT HEAD =           0.0000         CONSTANT HEAD =           0.0000
       RIVER LEAKAGE =           5.6979         RIVER LEAKAGE =           0.0000
            RECHARGE =        2163.0000              RECHARGE =          80.0000

            TOTAL IN =        4045.8628              TOTAL IN =          80.1853

          OUT:                                     OUT:
          ----                                     ----
             STORAGE =        1735.1410               STORAGE =          72.6642
       CONSTANT HEAD =         455.7849         CONSTANT HEAD =           3.3352
       RIVER LEAKAGE =         715.6863         RIVER LEAKAGE =           4.1857
            RECHARGE =        1139.2500              RECHARGE =           0.0000

           TOTAL OUT =        4045.8621             TOTAL OUT =          80.1852

            IN - OUT =       7.3242E-04              IN - OUT =       1.2207E-04

 PERCENT DISCREPANCY =           0.00     PERCENT DISCREPANCY =           0.00






         TIME SUMMARY AT END OF TIME STEP    1 IN STRESS PERIOD  136
                    SECONDS     MINUTES      HOURS       DAYS        YEARS
                    -----------------------------------------------------------
   TIME STEP LENGTH  86400.      1440.0      24.000      1.0000     2.73785E-03
 STRESS PERIOD TIME  86400.      1440.0      24.000      1.0000     2.73785E-03
         TOTAL TIME 1.17504E+07 1.95840E+05  3264.0      136.00     0.37235    
1
1
                            STRESS PERIOD NO.  137, LENGTH =   1.000000    
                            -----------------------------------------------

                              NUMBER OF TIME STEPS =     1

                               MULTIPLIER FOR DELT =     1.000

                            INITIAL TIME STEP SIZE =   1.000000    

 REUSING NON-PARAMETER RIVER REACHES FROM LAST STRESS PERIOD

      2 RIVER REACHES

                 RECHARGE = -1.000000E-03
 
 SOLVING FOR HEAD 

 OUTPUT CONTROL FOR STRESS PERIOD  137   TIME STEP    1
    SAVE HEAD FOR ALL LAYERS

 HEAD WILL BE SAVED ON UNIT   51 AT END OF TIME STEP    1, STRESS PERIOD  137
1
  VOLUMETRIC BUDGET FOR ENTIRE MODEL AT END OF TIME STEP    1, STRESS PERIOD 137
  ------------------------------------------------------------------------------

     CUMULATIVE VOLUMES      L**3       RATES FOR THIS TIME STEP      L**3/T
     ------------------                 ------------------------

           IN:                                      IN:
           ---                                      ---
             STORAGE =        1893.0128               STORAGE =          15.8479
       CONSTANT HEAD =           0.0000         CONSTANT HEAD =           0.0000
       RIVER LEAKAGE =           5.6979         RIVER LEAKAGE =           0.0000
            RECHARGE =        2163.0000              RECHARGE =           0.0000

            TOTAL IN =        4061.7107              TOTAL IN =          15.8479

          OUT:                                     OUT:
          ----                                     ----
             STORAGE =        1735.1410               STORAGE =           0.0000
       CONSTANT HEAD =         459.1183         CONSTANT HEAD =           3.3334
       RIVER LEAKAGE =         718.2006         RIVER LEAKAGE =           2.5142
            RECHARGE =        1149.2500              RECHARGE =          10.0000

           TOTAL OUT =        4061.7100             TOTAL OUT =          15.8477

            IN - OUT =       7.3242E-04              IN - OUT =       2.4128E-04

 PERCENT DISCREPANCY =           0.00     PERCENT DISCREPANCY =           0.00






         TIME SUMMARY AT END OF TIME STEP    1 IN STRESS PERIOD  137
                    SECONDS     MINUTES      HOURS       DAYS        YEARS
                    -----------------------------------------------------------
   TIME STEP LENGTH  86400.      1440.0      24.000      1.0000     2.73785E-03
 STRESS PERIOD TIME  86400.      1440.0      24.000      1.0000     2.73785E-03
         TOTAL TIME 1.18368E+07 1.97280E+05  3288.0      137.00     0.37509    
1
1
                            STRESS PERIOD NO.  138, LENGTH =   1.000000    
                            -----------------------------------------------

                              NUMBER OF TIME STEPS =     1

                               MULTIPLIER FOR DELT =     1.000

                            INITIAL TIME STEP SIZE =   1.000000    

 REUSING NON-PARAMETER RIVER REACHES FROM LAST STRESS PERIOD

      2 RIVER REACHES

                 RECHARGE = -3.875000E-03
 
 SOLVING FOR HEAD 

 OUTPUT CONTROL FOR STRESS PERIOD  138   TIME STEP    1
    SAVE HEAD FOR ALL LAYERS

 HEAD WILL BE SAVED ON UNIT   51 AT END OF TIME STEP    1, STRESS PERIOD  138
1
  VOLUMETRIC BUDGET FOR ENTIRE MODEL AT END OF TIME STEP    1, STRESS PERIOD 138
  ------------------------------------------------------------------------------

     CUMULATIVE VOLUMES      L**3       RATES FOR THIS TIME STEP      L**3/T
     ------------------                 ------------------------

           IN:                                      IN:
           ---                                      ---
             STORAGE =        1935.8870               STORAGE =          42.8742
       CONSTANT HEAD =           0.0000         CONSTANT HEAD =           0.0000
       RIVER LEAKAGE =           5.6979         RIVER LEAKAGE =           0.0000
            RECHARGE =        2163.0000              RECHARGE =           0.0000

            TOTAL IN =        4104.5850              TOTAL IN =          42.8742

          OUT:                                     OUT:
          ----                                     ----
             STORAGE =        1735.1410               STORAGE =           0.0000
       CONSTANT HEAD =         462.4484         CONSTANT HEAD =           3.3301
       RIVER LEAKAGE =         718.9945         RIVER LEAKAGE =           0.7939
            RECHARGE =        1188.0000              RECHARGE =          38.7500

           TOTAL OUT =        4104.5840             TOTAL OUT =          42.8740

            IN - OUT =       9.7656E-04              IN - OUT =       1.7166E-04

 PERCENT DISCREPANCY =           0.00     PERCENT DISCREPANCY =           0.00






         TIME SUMMARY AT END OF TIME STEP    1 IN STRESS PERIOD  138
                    SECONDS     MINUTES      HOURS       DAYS        YEARS
                    -----------------------------------------------------------
   TIME STEP LENGTH  86400.      1440.0      24.000      1.0000     2.73785E-03
 STRESS PERIOD TIME  86400.      1440.0      24.000      1.0000     2.73785E-03
         TOTAL TIME 1.19232E+07 1.98720E+05  3312.0      138.00     0.37782    
1
1
                            STRESS PERIOD NO.  139, LENGTH =   1.000000    
                            -----------------------------------------------

                              NUMBER OF TIME STEPS =     1

                               MULTIPLIER FOR DELT =     1.000

                            INITIAL TIME STEP SIZE =   1.000000    

 REUSING NON-PARAMETER RIVER REACHES FROM LAST STRESS PERIOD

      2 RIVER REACHES

                 RECHARGE = -2.775000E-03
 
 SOLVING FOR HEAD 

 OUTPUT CONTROL FOR STRESS PERIOD  139   TIME STEP    1
    SAVE HEAD FOR ALL LAYERS

 HEAD WILL BE SAVED ON UNIT   51 AT END OF TIME STEP    1, STRESS PERIOD  139
1
  VOLUMETRIC BUDGET FOR ENTIRE MODEL AT END OF TIME STEP    1, STRESS PERIOD 139
  ------------------------------------------------------------------------------

     CUMULATIVE VOLUMES      L**3       RATES FOR THIS TIME STEP      L**3/T
     ------------------                 ------------------------

           IN:                                      IN:
           ---                                      ---
             STORAGE =        1967.0861               STORAGE =          31.1990
       CONSTANT HEAD =           0.0000         CONSTANT HEAD =           0.0000
       RIVER LEAKAGE =           5.6979         RIVER LEAKAGE =           0.0000
            RECHARGE =        2163.0000              RECHARGE =           0.0000

            TOTAL IN =        4135.7842              TOTAL IN =          31.1990

          OUT:                                     OUT:
          ----                                     ----
             STORAGE =        1735.1410               STORAGE =           0.0000
       CONSTANT HEAD =         465.7748         CONSTANT HEAD =           3.3263
       RIVER LEAKAGE =         719.1172         RIVER LEAKAGE =           0.1227
            RECHARGE =        1215.7500              RECHARGE =          27.7500

           TOTAL OUT =        4135.7832             TOTAL OUT =          31.1991

            IN - OUT =       9.7656E-04              IN - OUT =      -1.5259E-05

 PERCENT DISCREPANCY =           0.00     PERCENT DISCREPANCY =          -0.00






         TIME SUMMARY AT END OF TIME STEP    1 IN STRESS PERIOD  139
                    SECONDS     MINUTES      HOURS       DAYS        YEARS
                    -----------------------------------------------------------
   TIME STEP LENGTH  86400.      1440.0      24.000      1.0000     2.73785E-03
 STRESS PERIOD TIME  86400.      1440.0      24.000      1.0000     2.73785E-03
         TOTAL TIME 1.20096E+07 2.00160E+05  3336.0      139.00     0.38056    
1
1
                            STRESS PERIOD NO.  140, LENGTH =   1.000000    
                            -----------------------------------------------

                              NUMBER OF TIME STEPS =     1

                               MULTIPLIER FOR DELT =     1.000

                            INITIAL TIME STEP SIZE =   1.000000    

 REUSING NON-PARAMETER RIVER REACHES FROM LAST STRESS PERIOD

      2 RIVER REACHES

                 RECHARGE = -4.300000E-03
 
 SOLVING FOR HEAD 

 OUTPUT CONTROL FOR STRESS PERIOD  140   TIME STEP    1
    SAVE HEAD FOR ALL LAYERS

 HEAD WILL BE SAVED ON UNIT   51 AT END OF TIME STEP    1, STRESS PERIOD  140
1
  VOLUMETRIC BUDGET FOR ENTIRE MODEL AT END OF TIME STEP    1, STRESS PERIOD 140
  ------------------------------------------------------------------------------

     CUMULATIVE VOLUMES      L**3       RATES FOR THIS TIME STEP      L**3/T
     ------------------                 ------------------------

           IN:                                      IN:
           ---                                      ---
             STORAGE =        2012.4503               STORAGE =          45.3642
       CONSTANT HEAD =           0.0000         CONSTANT HEAD =           0.0000
       RIVER LEAKAGE =           6.6556         RIVER LEAKAGE =           0.9577
            RECHARGE =        2163.0000              RECHARGE =           0.0000

            TOTAL IN =        4182.1060              TOTAL IN =          46.3219

          OUT:                                     OUT:
          ----                                     ----
             STORAGE =        1735.1410               STORAGE =           0.0000
       CONSTANT HEAD =         469.0965         CONSTANT HEAD =           3.3217
       RIVER LEAKAGE =         719.1172         RIVER LEAKAGE =           0.0000
            RECHARGE =        1258.7500              RECHARGE =          43.0000

           TOTAL OUT =        4182.1045             TOTAL OUT =          46.3217

            IN - OUT =       1.4648E-03              IN - OUT =       2.2125E-04

 PERCENT DISCREPANCY =           0.00     PERCENT DISCREPANCY =           0.00






         TIME SUMMARY AT END OF TIME STEP    1 IN STRESS PERIOD  140
                    SECONDS     MINUTES      HOURS       DAYS        YEARS
                    -----------------------------------------------------------
   TIME STEP LENGTH  86400.      1440.0      24.000      1.0000     2.73785E-03
 STRESS PERIOD TIME  86400.      1440.0      24.000      1.0000     2.73785E-03
         TOTAL TIME 1.20960E+07 2.01600E+05  3360.0      140.00     0.38330    
1
1
                            STRESS PERIOD NO.  141, LENGTH =   1.000000    
                            -----------------------------------------------

                              NUMBER OF TIME STEPS =     1

                               MULTIPLIER FOR DELT =     1.000

                            INITIAL TIME STEP SIZE =   1.000000    

 REUSING NON-PARAMETER RIVER REACHES FROM LAST STRESS PERIOD

      2 RIVER REACHES

                 RECHARGE = -1.600000E-03
 
 SOLVING FOR HEAD 

 OUTPUT CONTROL FOR STRESS PERIOD  141   TIME STEP    1
    SAVE HEAD FOR ALL LAYERS

 HEAD WILL BE SAVED ON UNIT   51 AT END OF TIME STEP    1, STRESS PERIOD  141
1
  VOLUMETRIC BUDGET FOR ENTIRE MODEL AT END OF TIME STEP    1, STRESS PERIOD 141
  ------------------------------------------------------------------------------

     CUMULATIVE VOLUMES      L**3       RATES FOR THIS TIME STEP      L**3/T
     ------------------                 ------------------------

           IN:                                      IN:
           ---                                      ---
             STORAGE =        2030.9950               STORAGE =          18.5446
       CONSTANT HEAD =           0.0000         CONSTANT HEAD =           0.0000
       RIVER LEAKAGE =           7.4621         RIVER LEAKAGE =           0.8065
            RECHARGE =        2163.0000              RECHARGE =           0.0000

            TOTAL IN =        4201.4570              TOTAL IN =          19.3511

          OUT:                                     OUT:
          ----                                     ----
             STORAGE =        1735.1748               STORAGE =       3.3849E-02
       CONSTANT HEAD =         472.4140         CONSTANT HEAD =           3.3175
       RIVER LEAKAGE =         719.1172         RIVER LEAKAGE =           0.0000
            RECHARGE =        1274.7500              RECHARGE =          16.0000

           TOTAL OUT =        4201.4561             TOTAL OUT =          19.3513

            IN - OUT =       9.7656E-04              IN - OUT =      -2.4414E-04

 PERCENT DISCREPANCY =           0.00     PERCENT DISCREPANCY =          -0.00






         TIME SUMMARY AT END OF TIME STEP    1 IN STRESS PERIOD  141
                    SECONDS     MINUTES      HOURS       DAYS        YEARS
                    -----------------------------------------------------------
   TIME STEP LENGTH  86400.      1440.0      24.000      1.0000     2.73785E-03
 STRESS PERIOD TIME  86400.      1440.0      24.000      1.0000     2.73785E-03
         TOTAL TIME 1.21824E+07 2.03040E+05  3384.0      141.00     0.38604    
1
1
                            STRESS PERIOD NO.  142, LENGTH =   1.000000    
                            -----------------------------------------------

                              NUMBER OF TIME STEPS =     1

                               MULTIPLIER FOR DELT =     1.000

                            INITIAL TIME STEP SIZE =   1.000000    

 REUSING NON-PARAMETER RIVER REACHES FROM LAST STRESS PERIOD

      2 RIVER REACHES

                 RECHARGE = -1.200000E-03
 
 SOLVING FOR HEAD 

 OUTPUT CONTROL FOR STRESS PERIOD  142   TIME STEP    1
    SAVE HEAD FOR ALL LAYERS

 HEAD WILL BE SAVED ON UNIT   51 AT END OF TIME STEP    1, STRESS PERIOD  142
1
  VOLUMETRIC BUDGET FOR ENTIRE MODEL AT END OF TIME STEP    1, STRESS PERIOD 142
  ------------------------------------------------------------------------------

     CUMULATIVE VOLUMES      L**3       RATES FOR THIS TIME STEP      L**3/T
     ------------------                 ------------------------

           IN:                                      IN:
           ---                                      ---
             STORAGE =        2045.5978               STORAGE =          14.6027
       CONSTANT HEAD =           0.0000         CONSTANT HEAD =           0.0000
       RIVER LEAKAGE =           8.1972         RIVER LEAKAGE =           0.7351
            RECHARGE =        2163.0000              RECHARGE =           0.0000

            TOTAL IN =        4216.7949              TOTAL IN =          15.3379

          OUT:                                     OUT:
          ----                                     ----
             STORAGE =        1735.1992               STORAGE =       2.4425E-02
       CONSTANT HEAD =         475.7274         CONSTANT HEAD =           3.3134
       RIVER LEAKAGE =         719.1172         RIVER LEAKAGE =           0.0000
            RECHARGE =        1286.7500              RECHARGE =          12.0000

           TOTAL OUT =        4216.7939             TOTAL OUT =          15.3378

            IN - OUT =       9.7656E-04              IN - OUT =       6.1989E-05

 PERCENT DISCREPANCY =           0.00     PERCENT DISCREPANCY =           0.00






         TIME SUMMARY AT END OF TIME STEP    1 IN STRESS PERIOD  142
                    SECONDS     MINUTES      HOURS       DAYS        YEARS
                    -----------------------------------------------------------
   TIME STEP LENGTH  86400.      1440.0      24.000      1.0000     2.73785E-03
 STRESS PERIOD TIME  86400.      1440.0      24.000      1.0000     2.73785E-03
         TOTAL TIME 1.22688E+07 2.04480E+05  3408.0      142.00     0.38877    
1
1
                            STRESS PERIOD NO.  143, LENGTH =   1.000000    
                            -----------------------------------------------

                              NUMBER OF TIME STEPS =     1

                               MULTIPLIER FOR DELT =     1.000

                            INITIAL TIME STEP SIZE =   1.000000    

 REUSING NON-PARAMETER RIVER REACHES FROM LAST STRESS PERIOD

      2 RIVER REACHES

                 RECHARGE = -2.100000E-03
 
 SOLVING FOR HEAD 

 OUTPUT CONTROL FOR STRESS PERIOD  143   TIME STEP    1
    SAVE HEAD FOR ALL LAYERS

 HEAD WILL BE SAVED ON UNIT   51 AT END OF TIME STEP    1, STRESS PERIOD  143
1
  VOLUMETRIC BUDGET FOR ENTIRE MODEL AT END OF TIME STEP    1, STRESS PERIOD 143
  ------------------------------------------------------------------------------

     CUMULATIVE VOLUMES      L**3       RATES FOR THIS TIME STEP      L**3/T
     ------------------                 ------------------------

           IN:                                      IN:
           ---                                      ---
             STORAGE =        2068.8279               STORAGE =          23.2302
       CONSTANT HEAD =           0.0000         CONSTANT HEAD =           0.0000
       RIVER LEAKAGE =           9.2758         RIVER LEAKAGE =           1.0786
            RECHARGE =        2163.0000              RECHARGE =           0.0000

            TOTAL IN =        4241.1035              TOTAL IN =          24.3089

          OUT:                                     OUT:
          ----                                     ----
             STORAGE =        1735.1992               STORAGE =           0.0000
       CONSTANT HEAD =         479.0363         CONSTANT HEAD =           3.3090
       RIVER LEAKAGE =         719.1172         RIVER LEAKAGE =           0.0000
            RECHARGE =        1307.7500              RECHARGE =          21.0000

           TOTAL OUT =        4241.1025             TOTAL OUT =          24.3090

            IN - OUT =       9.7656E-04              IN - OUT =      -1.0490E-04

 PERCENT DISCREPANCY =           0.00     PERCENT DISCREPANCY =          -0.00






         TIME SUMMARY AT END OF TIME STEP    1 IN STRESS PERIOD  143
                    SECONDS     MINUTES      HOURS       DAYS        YEARS
                    -----------------------------------------------------------
   TIME STEP LENGTH  86400.      1440.0      24.000      1.0000     2.73785E-03
 STRESS PERIOD TIME  86400.      1440.0      24.000      1.0000     2.73785E-03
         TOTAL TIME 1.23552E+07 2.05920E+05  3432.0      143.00     0.39151    
1
1
                            STRESS PERIOD NO.  144, LENGTH =   1.000000    
                            -----------------------------------------------

                              NUMBER OF TIME STEPS =     1

                               MULTIPLIER FOR DELT =     1.000

                            INITIAL TIME STEP SIZE =   1.000000    

 REUSING NON-PARAMETER RIVER REACHES FROM LAST STRESS PERIOD

      2 RIVER REACHES

                 RECHARGE = -3.600000E-03
 
 SOLVING FOR HEAD 

 OUTPUT CONTROL FOR STRESS PERIOD  144   TIME STEP    1
    SAVE HEAD FOR ALL LAYERS

 HEAD WILL BE SAVED ON UNIT   51 AT END OF TIME STEP    1, STRESS PERIOD  144
1
  VOLUMETRIC BUDGET FOR ENTIRE MODEL AT END OF TIME STEP    1, STRESS PERIOD 144
  ------------------------------------------------------------------------------

     CUMULATIVE VOLUMES      L**3       RATES FOR THIS TIME STEP      L**3/T
     ------------------                 ------------------------

           IN:                                      IN:
           ---                                      ---
             STORAGE =        2106.2727               STORAGE =          37.4448
       CONSTANT HEAD =           0.0000         CONSTANT HEAD =           0.0000
       RIVER LEAKAGE =          11.1347         RIVER LEAKAGE =           1.8588
            RECHARGE =        2163.0000              RECHARGE =           0.0000

            TOTAL IN =        4280.4072              TOTAL IN =          39.3036

          OUT:                                     OUT:
          ----                                     ----
             STORAGE =        1735.1992               STORAGE =           0.0000
       CONSTANT HEAD =         482.3402         CONSTANT HEAD =           3.3038
       RIVER LEAKAGE =         719.1172         RIVER LEAKAGE =           0.0000
            RECHARGE =        1343.7500              RECHARGE =          36.0000

           TOTAL OUT =        4280.4062             TOTAL OUT =          39.3038

            IN - OUT =       9.7656E-04              IN - OUT =      -2.0218E-04

 PERCENT DISCREPANCY =           0.00     PERCENT DISCREPANCY =          -0.00






         TIME SUMMARY AT END OF TIME STEP    1 IN STRESS PERIOD  144
                    SECONDS     MINUTES      HOURS       DAYS        YEARS
                    -----------------------------------------------------------
   TIME STEP LENGTH  86400.      1440.0      24.000      1.0000     2.73785E-03
 STRESS PERIOD TIME  86400.      1440.0      24.000      1.0000     2.73785E-03
         TOTAL TIME 1.24416E+07 2.07360E+05  3456.0      144.00     0.39425    
1
1
                            STRESS PERIOD NO.  145, LENGTH =   1.000000    
                            -----------------------------------------------

                              NUMBER OF TIME STEPS =     1

                               MULTIPLIER FOR DELT =     1.000

                            INITIAL TIME STEP SIZE =   1.000000    

 REUSING NON-PARAMETER RIVER REACHES FROM LAST STRESS PERIOD

      2 RIVER REACHES

                 RECHARGE = -4.600000E-03
 
 SOLVING FOR HEAD 

 OUTPUT CONTROL FOR STRESS PERIOD  145   TIME STEP    1
    SAVE HEAD FOR ALL LAYERS

 HEAD WILL BE SAVED ON UNIT   51 AT END OF TIME STEP    1, STRESS PERIOD  145
1
  VOLUMETRIC BUDGET FOR ENTIRE MODEL AT END OF TIME STEP    1, STRESS PERIOD 145
  ------------------------------------------------------------------------------

     CUMULATIVE VOLUMES      L**3       RATES FOR THIS TIME STEP      L**3/T
     ------------------                 ------------------------

           IN:                                      IN:
           ---                                      ---
             STORAGE =        2152.8125               STORAGE =          46.5398
       CONSTANT HEAD =           0.0000         CONSTANT HEAD =           0.0000
       RIVER LEAKAGE =          13.8928         RIVER LEAKAGE =           2.7582
            RECHARGE =        2163.0000              RECHARGE =           0.0000

            TOTAL IN =        4329.7051              TOTAL IN =          49.2980

          OUT:                                     OUT:
          ----                                     ----
             STORAGE =        1735.1992               STORAGE =           0.0000
       CONSTANT HEAD =         485.6382         CONSTANT HEAD =           3.2980
       RIVER LEAKAGE =         719.1172         RIVER LEAKAGE =           0.0000
            RECHARGE =        1389.7500              RECHARGE =          46.0000

           TOTAL OUT =        4329.7046             TOTAL OUT =          49.2980

            IN - OUT =       4.8828E-04              IN - OUT =       1.1444E-05

 PERCENT DISCREPANCY =           0.00     PERCENT DISCREPANCY =           0.00






         TIME SUMMARY AT END OF TIME STEP    1 IN STRESS PERIOD  145
                    SECONDS     MINUTES      HOURS       DAYS        YEARS
                    -----------------------------------------------------------
   TIME STEP LENGTH  86400.      1440.0      24.000      1.0000     2.73785E-03
 STRESS PERIOD TIME  86400.      1440.0      24.000      1.0000     2.73785E-03
         TOTAL TIME 1.25280E+07 2.08800E+05  3480.0      145.00     0.39699    
1
1
                            STRESS PERIOD NO.  146, LENGTH =   1.000000    
                            -----------------------------------------------

                              NUMBER OF TIME STEPS =     1

                               MULTIPLIER FOR DELT =     1.000

                            INITIAL TIME STEP SIZE =   1.000000    

 REUSING NON-PARAMETER RIVER REACHES FROM LAST STRESS PERIOD

      2 RIVER REACHES

                 RECHARGE = -4.300000E-03
 
 SOLVING FOR HEAD 

 OUTPUT CONTROL FOR STRESS PERIOD  146   TIME STEP    1
    SAVE HEAD FOR ALL LAYERS

 HEAD WILL BE SAVED ON UNIT   51 AT END OF TIME STEP    1, STRESS PERIOD  146
1
  VOLUMETRIC BUDGET FOR ENTIRE MODEL AT END OF TIME STEP    1, STRESS PERIOD 146
  ------------------------------------------------------------------------------

     CUMULATIVE VOLUMES      L**3       RATES FOR THIS TIME STEP      L**3/T
     ------------------                 ------------------------

           IN:                                      IN:
           ---                                      ---
             STORAGE =        2195.7749               STORAGE =          42.9624
       CONSTANT HEAD =           0.0000         CONSTANT HEAD =           0.0000
       RIVER LEAKAGE =          17.2224         RIVER LEAKAGE =           3.3296
            RECHARGE =        2163.0000              RECHARGE =           0.0000

            TOTAL IN =        4375.9971              TOTAL IN =          46.2920

          OUT:                                     OUT:
          ----                                     ----
             STORAGE =        1735.1992               STORAGE =           0.0000
       CONSTANT HEAD =         488.9299         CONSTANT HEAD =           3.2918
       RIVER LEAKAGE =         719.1172         RIVER LEAKAGE =           0.0000
            RECHARGE =        1432.7500              RECHARGE =          43.0000

           TOTAL OUT =        4375.9961             TOTAL OUT =          46.2918

            IN - OUT =       9.7656E-04              IN - OUT =       2.2125E-04

 PERCENT DISCREPANCY =           0.00     PERCENT DISCREPANCY =           0.00






         TIME SUMMARY AT END OF TIME STEP    1 IN STRESS PERIOD  146
                    SECONDS     MINUTES      HOURS       DAYS        YEARS
                    -----------------------------------------------------------
   TIME STEP LENGTH  86400.      1440.0      24.000      1.0000     2.73785E-03
 STRESS PERIOD TIME  86400.      1440.0      24.000      1.0000     2.73785E-03
         TOTAL TIME 1.26144E+07 2.10240E+05  3504.0      146.00     0.39973    
1
1
                            STRESS PERIOD NO.  147, LENGTH =   1.000000    
                            -----------------------------------------------

                              NUMBER OF TIME STEPS =     1

                               MULTIPLIER FOR DELT =     1.000

                            INITIAL TIME STEP SIZE =   1.000000    

 REUSING NON-PARAMETER RIVER REACHES FROM LAST STRESS PERIOD

      2 RIVER REACHES

                 RECHARGE = -3.700000E-03
 
 SOLVING FOR HEAD 

 OUTPUT CONTROL FOR STRESS PERIOD  147   TIME STEP    1
    SAVE HEAD FOR ALL LAYERS

 HEAD WILL BE SAVED ON UNIT   51 AT END OF TIME STEP    1, STRESS PERIOD  147
1
  VOLUMETRIC BUDGET FOR ENTIRE MODEL AT END OF TIME STEP    1, STRESS PERIOD 147
  ------------------------------------------------------------------------------

     CUMULATIVE VOLUMES      L**3       RATES FOR THIS TIME STEP      L**3/T
     ------------------                 ------------------------

           IN:                                      IN:
           ---                                      ---
             STORAGE =        2232.4307               STORAGE =          36.6557
       CONSTANT HEAD =           0.0000         CONSTANT HEAD =           0.0000
       RIVER LEAKAGE =          20.8523         RIVER LEAKAGE =           3.6299
            RECHARGE =        2163.0000              RECHARGE =           0.0000

            TOTAL IN =        4416.2832              TOTAL IN =          40.2856

          OUT:                                     OUT:
          ----                                     ----
             STORAGE =        1735.1992               STORAGE =           0.0000
       CONSTANT HEAD =         492.2154         CONSTANT HEAD =           3.2854
       RIVER LEAKAGE =         719.1172         RIVER LEAKAGE =           0.0000
            RECHARGE =        1469.7500              RECHARGE =          37.0000

           TOTAL OUT =        4416.2817             TOTAL OUT =          40.2854

            IN - OUT =       1.4648E-03              IN - OUT =       1.4114E-04

 PERCENT DISCREPANCY =           0.00     PERCENT DISCREPANCY =           0.00






         TIME SUMMARY AT END OF TIME STEP    1 IN STRESS PERIOD  147
                    SECONDS     MINUTES      HOURS       DAYS        YEARS
                    -----------------------------------------------------------
   TIME STEP LENGTH  86400.      1440.0      24.000      1.0000     2.73785E-03
 STRESS PERIOD TIME  86400.      1440.0      24.000      1.0000     2.73785E-03
         TOTAL TIME 1.27008E+07 2.11680E+05  3528.0      147.00     0.40246    
1
1
                            STRESS PERIOD NO.  148, LENGTH =   1.000000    
                            -----------------------------------------------

                              NUMBER OF TIME STEPS =     1

                               MULTIPLIER FOR DELT =     1.000

                            INITIAL TIME STEP SIZE =   1.000000    

 REUSING NON-PARAMETER RIVER REACHES FROM LAST STRESS PERIOD

      2 RIVER REACHES

                 RECHARGE = -4.900000E-03
 
 SOLVING FOR HEAD 

 OUTPUT CONTROL FOR STRESS PERIOD  148   TIME STEP    1
    SAVE HEAD FOR ALL LAYERS

 HEAD WILL BE SAVED ON UNIT   51 AT END OF TIME STEP    1, STRESS PERIOD  148
1
  VOLUMETRIC BUDGET FOR ENTIRE MODEL AT END OF TIME STEP    1, STRESS PERIOD 148
  ------------------------------------------------------------------------------

     CUMULATIVE VOLUMES      L**3       RATES FOR THIS TIME STEP      L**3/T
     ------------------                 ------------------------

           IN:                                      IN:
           ---                                      ---
             STORAGE =        2280.3315               STORAGE =          47.9008
       CONSTANT HEAD =           0.0000         CONSTANT HEAD =           0.0000
       RIVER LEAKAGE =          25.2298         RIVER LEAKAGE =           4.3775
            RECHARGE =        2163.0000              RECHARGE =           0.0000

            TOTAL IN =        4468.5615              TOTAL IN =          52.2783

          OUT:                                     OUT:
          ----                                     ----
             STORAGE =        1735.1992               STORAGE =           0.0000
       CONSTANT HEAD =         495.4938         CONSTANT HEAD =           3.2785
       RIVER LEAKAGE =         719.1172         RIVER LEAKAGE =           0.0000
            RECHARGE =        1518.7500              RECHARGE =          49.0000

           TOTAL OUT =        4468.5605             TOTAL OUT =          52.2785

            IN - OUT =       9.7656E-04              IN - OUT =      -2.0599E-04

 PERCENT DISCREPANCY =           0.00     PERCENT DISCREPANCY =          -0.00






         TIME SUMMARY AT END OF TIME STEP    1 IN STRESS PERIOD  148
                    SECONDS     MINUTES      HOURS       DAYS        YEARS
                    -----------------------------------------------------------
   TIME STEP LENGTH  86400.      1440.0      24.000      1.0000     2.73785E-03
 STRESS PERIOD TIME  86400.      1440.0      24.000      1.0000     2.73785E-03
         TOTAL TIME 1.27872E+07 2.13120E+05  3552.0      148.00     0.40520    
1
1
                            STRESS PERIOD NO.  149, LENGTH =   1.000000    
                            -----------------------------------------------

                              NUMBER OF TIME STEPS =     1

                               MULTIPLIER FOR DELT =     1.000

                            INITIAL TIME STEP SIZE =   1.000000    

 REUSING NON-PARAMETER RIVER REACHES FROM LAST STRESS PERIOD

      2 RIVER REACHES

                 RECHARGE = -5.300000E-03
 
 SOLVING FOR HEAD 

 OUTPUT CONTROL FOR STRESS PERIOD  149   TIME STEP    1
    SAVE HEAD FOR ALL LAYERS

 HEAD WILL BE SAVED ON UNIT   51 AT END OF TIME STEP    1, STRESS PERIOD  149
1
  VOLUMETRIC BUDGET FOR ENTIRE MODEL AT END OF TIME STEP    1, STRESS PERIOD 149
  ------------------------------------------------------------------------------

     CUMULATIVE VOLUMES      L**3       RATES FOR THIS TIME STEP      L**3/T
     ------------------                 ------------------------

           IN:                                      IN:
           ---                                      ---
             STORAGE =        2331.5037               STORAGE =          51.1721
       CONSTANT HEAD =           0.0000         CONSTANT HEAD =           0.0000
       RIVER LEAKAGE =          30.3287         RIVER LEAKAGE =           5.0989
            RECHARGE =        2163.0000              RECHARGE =           0.0000

            TOTAL IN =        4524.8320              TOTAL IN =          56.2710

          OUT:                                     OUT:
          ----                                     ----
             STORAGE =        1735.1992               STORAGE =           0.0000
       CONSTANT HEAD =         498.7648         CONSTANT HEAD =           3.2710
       RIVER LEAKAGE =         719.1172         RIVER LEAKAGE =           0.0000
            RECHARGE =        1571.7500              RECHARGE =          53.0000

           TOTAL OUT =        4524.8311             TOTAL OUT =          56.2710

            IN - OUT =       9.7656E-04              IN - OUT =       3.8147E-06

 PERCENT DISCREPANCY =           0.00     PERCENT DISCREPANCY =           0.00






         TIME SUMMARY AT END OF TIME STEP    1 IN STRESS PERIOD  149
                    SECONDS     MINUTES      HOURS       DAYS        YEARS
                    -----------------------------------------------------------
   TIME STEP LENGTH  86400.      1440.0      24.000      1.0000     2.73785E-03
 STRESS PERIOD TIME  86400.      1440.0      24.000      1.0000     2.73785E-03
         TOTAL TIME 1.28736E+07 2.14560E+05  3576.0      149.00     0.40794    
1
1
                            STRESS PERIOD NO.  150, LENGTH =   1.000000    
                            -----------------------------------------------

                              NUMBER OF TIME STEPS =     1

                               MULTIPLIER FOR DELT =     1.000

                            INITIAL TIME STEP SIZE =   1.000000    

 REUSING NON-PARAMETER RIVER REACHES FROM LAST STRESS PERIOD

      2 RIVER REACHES

                 RECHARGE = -5.400000E-03
 
 SOLVING FOR HEAD 

 OUTPUT CONTROL FOR STRESS PERIOD  150   TIME STEP    1
    SAVE HEAD FOR ALL LAYERS

 HEAD WILL BE SAVED ON UNIT   51 AT END OF TIME STEP    1, STRESS PERIOD  150
1
  VOLUMETRIC BUDGET FOR ENTIRE MODEL AT END OF TIME STEP    1, STRESS PERIOD 150
  ------------------------------------------------------------------------------

     CUMULATIVE VOLUMES      L**3       RATES FOR THIS TIME STEP      L**3/T
     ------------------                 ------------------------

           IN:                                      IN:
           ---                                      ---
             STORAGE =        2383.0359               STORAGE =          51.5321
       CONSTANT HEAD =           0.0000         CONSTANT HEAD =           0.0000
       RIVER LEAKAGE =          36.0595         RIVER LEAKAGE =           5.7308
            RECHARGE =        2163.0000              RECHARGE =           0.0000

            TOTAL IN =        4582.0957              TOTAL IN =          57.2629

          OUT:                                     OUT:
          ----                                     ----
             STORAGE =        1735.1992               STORAGE =           0.0000
       CONSTANT HEAD =         502.0279         CONSTANT HEAD =           3.2631
       RIVER LEAKAGE =         719.1172         RIVER LEAKAGE =           0.0000
            RECHARGE =        1625.7500              RECHARGE =          54.0000

           TOTAL OUT =        4582.0942             TOTAL OUT =          57.2631

            IN - OUT =       1.4648E-03              IN - OUT =      -1.3351E-04

 PERCENT DISCREPANCY =           0.00     PERCENT DISCREPANCY =          -0.00






         TIME SUMMARY AT END OF TIME STEP    1 IN STRESS PERIOD  150
                    SECONDS     MINUTES      HOURS       DAYS        YEARS
                    -----------------------------------------------------------
   TIME STEP LENGTH  86400.      1440.0      24.000      1.0000     2.73785E-03
 STRESS PERIOD TIME  86400.      1440.0      24.000      1.0000     2.73785E-03
         TOTAL TIME 1.29600E+07 2.16000E+05  3600.0      150.00     0.41068    
1
1
                            STRESS PERIOD NO.  151, LENGTH =   1.000000    
                            -----------------------------------------------

                              NUMBER OF TIME STEPS =     1

                               MULTIPLIER FOR DELT =     1.000

                            INITIAL TIME STEP SIZE =   1.000000    

 REUSING NON-PARAMETER RIVER REACHES FROM LAST STRESS PERIOD

      2 RIVER REACHES

                 RECHARGE = -4.800000E-03
 
 SOLVING FOR HEAD 

 OUTPUT CONTROL FOR STRESS PERIOD  151   TIME STEP    1
    SAVE HEAD FOR ALL LAYERS

 HEAD WILL BE SAVED ON UNIT   51 AT END OF TIME STEP    1, STRESS PERIOD  151
1
  VOLUMETRIC BUDGET FOR ENTIRE MODEL AT END OF TIME STEP    1, STRESS PERIOD 151
  ------------------------------------------------------------------------------

     CUMULATIVE VOLUMES      L**3       RATES FOR THIS TIME STEP      L**3/T
     ------------------                 ------------------------

           IN:                                      IN:
           ---                                      ---
             STORAGE =        2428.2131               STORAGE =          45.1772
       CONSTANT HEAD =           0.0000         CONSTANT HEAD =           0.0000
       RIVER LEAKAGE =          42.1371         RIVER LEAKAGE =           6.0776
            RECHARGE =        2163.0000              RECHARGE =           0.0000

            TOTAL IN =        4633.3501              TOTAL IN =          51.2548

          OUT:                                     OUT:
          ----                                     ----
             STORAGE =        1735.1992               STORAGE =           0.0000
       CONSTANT HEAD =         505.2829         CONSTANT HEAD =           3.2550
       RIVER LEAKAGE =         719.1172         RIVER LEAKAGE =           0.0000
            RECHARGE =        1673.7500              RECHARGE =          48.0000

           TOTAL OUT =        4633.3496             TOTAL OUT =          51.2550

            IN - OUT =       4.8828E-04              IN - OUT =      -1.5259E-04

 PERCENT DISCREPANCY =           0.00     PERCENT DISCREPANCY =          -0.00






         TIME SUMMARY AT END OF TIME STEP    1 IN STRESS PERIOD  151
                    SECONDS     MINUTES      HOURS       DAYS        YEARS
                    -----------------------------------------------------------
   TIME STEP LENGTH  86400.      1440.0      24.000      1.0000     2.73785E-03
 STRESS PERIOD TIME  86400.      1440.0      24.000      1.0000     2.73785E-03
         TOTAL TIME 1.30464E+07 2.17440E+05  3624.0      151.00     0.41342    
1
1
                            STRESS PERIOD NO.  152, LENGTH =   1.000000    
                            -----------------------------------------------

                              NUMBER OF TIME STEPS =     1

                               MULTIPLIER FOR DELT =     1.000

                            INITIAL TIME STEP SIZE =   1.000000    

 REUSING NON-PARAMETER RIVER REACHES FROM LAST STRESS PERIOD

      2 RIVER REACHES

                 RECHARGE = -4.000000E-03
 
 SOLVING FOR HEAD 

 OUTPUT CONTROL FOR STRESS PERIOD  152   TIME STEP    1
    SAVE HEAD FOR ALL LAYERS

 HEAD WILL BE SAVED ON UNIT   51 AT END OF TIME STEP    1, STRESS PERIOD  152
1
  VOLUMETRIC BUDGET FOR ENTIRE MODEL AT END OF TIME STEP    1, STRESS PERIOD 152
  ------------------------------------------------------------------------------

     CUMULATIVE VOLUMES      L**3       RATES FOR THIS TIME STEP      L**3/T
     ------------------                 ------------------------

           IN:                                      IN:
           ---                                      ---
             STORAGE =        2465.2815               STORAGE =          37.0683
       CONSTANT HEAD =           0.0000         CONSTANT HEAD =           0.0000
       RIVER LEAKAGE =          48.3158         RIVER LEAKAGE =           6.1787
            RECHARGE =        2163.0000              RECHARGE =           0.0000

            TOTAL IN =        4676.5972              TOTAL IN =          43.2470

          OUT:                                     OUT:
          ----                                     ----
             STORAGE =        1735.1992               STORAGE =           0.0000
       CONSTANT HEAD =         508.5298         CONSTANT HEAD =           3.2470
       RIVER LEAKAGE =         719.1172         RIVER LEAKAGE =           0.0000
            RECHARGE =        1713.7500              RECHARGE =          40.0000

           TOTAL OUT =        4676.5962             TOTAL OUT =          43.2470

            IN - OUT =       9.7656E-04              IN - OUT =       1.1444E-05

 PERCENT DISCREPANCY =           0.00     PERCENT DISCREPANCY =           0.00






         TIME SUMMARY AT END OF TIME STEP    1 IN STRESS PERIOD  152
                    SECONDS     MINUTES      HOURS       DAYS        YEARS
                    -----------------------------------------------------------
   TIME STEP LENGTH  86400.      1440.0      24.000      1.0000     2.73785E-03
 STRESS PERIOD TIME  86400.      1440.0      24.000      1.0000     2.73785E-03
         TOTAL TIME 1.31328E+07 2.18880E+05  3648.0      152.00     0.41615    
1
1
                            STRESS PERIOD NO.  153, LENGTH =   1.000000    
                            -----------------------------------------------

                              NUMBER OF TIME STEPS =     1

                               MULTIPLIER FOR DELT =     1.000

                            INITIAL TIME STEP SIZE =   1.000000    

 REUSING NON-PARAMETER RIVER REACHES FROM LAST STRESS PERIOD

      2 RIVER REACHES

                 RECHARGE = -2.700000E-03
 
 SOLVING FOR HEAD 

 OUTPUT CONTROL FOR STRESS PERIOD  153   TIME STEP    1
    SAVE HEAD FOR ALL LAYERS

 HEAD WILL BE SAVED ON UNIT   51 AT END OF TIME STEP    1, STRESS PERIOD  153
1
  VOLUMETRIC BUDGET FOR ENTIRE MODEL AT END OF TIME STEP    1, STRESS PERIOD 153
  ------------------------------------------------------------------------------

     CUMULATIVE VOLUMES      L**3       RATES FOR THIS TIME STEP      L**3/T
     ------------------                 ------------------------

           IN:                                      IN:
           ---                                      ---
             STORAGE =        2489.7959               STORAGE =          24.5145
       CONSTANT HEAD =           0.0000         CONSTANT HEAD =           0.0000
       RIVER LEAKAGE =          54.2457         RIVER LEAKAGE =           5.9300
            RECHARGE =        2163.0000              RECHARGE =           0.0000

            TOTAL IN =        4707.0420              TOTAL IN =          30.4444

          OUT:                                     OUT:
          ----                                     ----
             STORAGE =        1735.4044               STORAGE =           0.2052
       CONSTANT HEAD =         511.7691         CONSTANT HEAD =           3.2393
       RIVER LEAKAGE =         719.1172         RIVER LEAKAGE =           0.0000
            RECHARGE =        1740.7500              RECHARGE =          27.0000

           TOTAL OUT =        4707.0410             TOTAL OUT =          30.4445

            IN - OUT =       9.7656E-04              IN - OUT =      -7.6294E-05

 PERCENT DISCREPANCY =           0.00     PERCENT DISCREPANCY =          -0.00






         TIME SUMMARY AT END OF TIME STEP    1 IN STRESS PERIOD  153
                    SECONDS     MINUTES      HOURS       DAYS        YEARS
                    -----------------------------------------------------------
   TIME STEP LENGTH  86400.      1440.0      24.000      1.0000     2.73785E-03
 STRESS PERIOD TIME  86400.      1440.0      24.000      1.0000     2.73785E-03
         TOTAL TIME 1.32192E+07 2.20320E+05  3672.0      153.00     0.41889    
1
1
                            STRESS PERIOD NO.  154, LENGTH =   1.000000    
                            -----------------------------------------------

                              NUMBER OF TIME STEPS =     1

                               MULTIPLIER FOR DELT =     1.000

                            INITIAL TIME STEP SIZE =   1.000000    

 REUSING NON-PARAMETER RIVER REACHES FROM LAST STRESS PERIOD

      2 RIVER REACHES

                 RECHARGE = -3.900000E-03
 
 SOLVING FOR HEAD 

 OUTPUT CONTROL FOR STRESS PERIOD  154   TIME STEP    1
    SAVE HEAD FOR ALL LAYERS

 HEAD WILL BE SAVED ON UNIT   51 AT END OF TIME STEP    1, STRESS PERIOD  154
1
  VOLUMETRIC BUDGET FOR ENTIRE MODEL AT END OF TIME STEP    1, STRESS PERIOD 154
  ------------------------------------------------------------------------------

     CUMULATIVE VOLUMES      L**3       RATES FOR THIS TIME STEP      L**3/T
     ------------------                 ------------------------

           IN:                                      IN:
           ---                                      ---
             STORAGE =        2525.7324               STORAGE =          35.9366
       CONSTANT HEAD =           0.0000         CONSTANT HEAD =           0.0000
       RIVER LEAKAGE =          60.5404         RIVER LEAKAGE =           6.2947
            RECHARGE =        2163.0000              RECHARGE =           0.0000

            TOTAL IN =        4749.2725              TOTAL IN =          42.2312

          OUT:                                     OUT:
          ----                                     ----
             STORAGE =        1735.4044               STORAGE =           0.0000
       CONSTANT HEAD =         515.0004         CONSTANT HEAD =           3.2312
       RIVER LEAKAGE =         719.1172         RIVER LEAKAGE =           0.0000
            RECHARGE =        1779.7500              RECHARGE =          39.0000

           TOTAL OUT =        4749.2720             TOTAL OUT =          42.2312

            IN - OUT =       4.8828E-04              IN - OUT =       3.8147E-06

 PERCENT DISCREPANCY =           0.00     PERCENT DISCREPANCY =           0.00






         TIME SUMMARY AT END OF TIME STEP    1 IN STRESS PERIOD  154
                    SECONDS     MINUTES      HOURS       DAYS        YEARS
                    -----------------------------------------------------------
   TIME STEP LENGTH  86400.      1440.0      24.000      1.0000     2.73785E-03
 STRESS PERIOD TIME  86400.      1440.0      24.000      1.0000     2.73785E-03
         TOTAL TIME 1.33056E+07 2.21760E+05  3696.0      154.00     0.42163    
1
1
                            STRESS PERIOD NO.  155, LENGTH =   1.000000    
                            -----------------------------------------------

                              NUMBER OF TIME STEPS =     1

                               MULTIPLIER FOR DELT =     1.000

                            INITIAL TIME STEP SIZE =   1.000000    

 REUSING NON-PARAMETER RIVER REACHES FROM LAST STRESS PERIOD

      2 RIVER REACHES

                 RECHARGE = -5.000000E-03
 
 SOLVING FOR HEAD 

 OUTPUT CONTROL FOR STRESS PERIOD  155   TIME STEP    1
    SAVE HEAD FOR ALL LAYERS

 HEAD WILL BE SAVED ON UNIT   51 AT END OF TIME STEP    1, STRESS PERIOD  155
1
  VOLUMETRIC BUDGET FOR ENTIRE MODEL AT END OF TIME STEP    1, STRESS PERIOD 155
  ------------------------------------------------------------------------------

     CUMULATIVE VOLUMES      L**3       RATES FOR THIS TIME STEP      L**3/T
     ------------------                 ------------------------

           IN:                                      IN:
           ---                                      ---
             STORAGE =        2572.0012               STORAGE =          46.2687
       CONSTANT HEAD =           0.0000         CONSTANT HEAD =           0.0000
       RIVER LEAKAGE =          67.4945         RIVER LEAKAGE =           6.9541
            RECHARGE =        2163.0000              RECHARGE =           0.0000

            TOTAL IN =        4802.4956              TOTAL IN =          53.2228

          OUT:                                     OUT:
          ----                                     ----
             STORAGE =        1735.4044               STORAGE =           0.0000
       CONSTANT HEAD =         518.2230         CONSTANT HEAD =           3.2226
       RIVER LEAKAGE =         719.1172         RIVER LEAKAGE =           0.0000
            RECHARGE =        1829.7500              RECHARGE =          50.0000

           TOTAL OUT =        4802.4946             TOTAL OUT =          53.2226

            IN - OUT =       9.7656E-04              IN - OUT =       1.7166E-04

 PERCENT DISCREPANCY =           0.00     PERCENT DISCREPANCY =           0.00






         TIME SUMMARY AT END OF TIME STEP    1 IN STRESS PERIOD  155
                    SECONDS     MINUTES      HOURS       DAYS        YEARS
                    -----------------------------------------------------------
   TIME STEP LENGTH  86400.      1440.0      24.000      1.0000     2.73785E-03
 STRESS PERIOD TIME  86400.      1440.0      24.000      1.0000     2.73785E-03
         TOTAL TIME 1.33920E+07 2.23200E+05  3720.0      155.00     0.42437    
1
1
                            STRESS PERIOD NO.  156, LENGTH =   1.000000    
                            -----------------------------------------------

                              NUMBER OF TIME STEPS =     1

                               MULTIPLIER FOR DELT =     1.000

                            INITIAL TIME STEP SIZE =   1.000000    

 REUSING NON-PARAMETER RIVER REACHES FROM LAST STRESS PERIOD

      2 RIVER REACHES

                 RECHARGE = -4.100000E-03
 
 SOLVING FOR HEAD 

 OUTPUT CONTROL FOR STRESS PERIOD  156   TIME STEP    1
    SAVE HEAD FOR ALL LAYERS

 HEAD WILL BE SAVED ON UNIT   51 AT END OF TIME STEP    1, STRESS PERIOD  156
1
  VOLUMETRIC BUDGET FOR ENTIRE MODEL AT END OF TIME STEP    1, STRESS PERIOD 156
  ------------------------------------------------------------------------------

     CUMULATIVE VOLUMES      L**3       RATES FOR THIS TIME STEP      L**3/T
     ------------------                 ------------------------

           IN:                                      IN:
           ---                                      ---
             STORAGE =        2609.0796               STORAGE =          37.0784
       CONSTANT HEAD =           0.0000         CONSTANT HEAD =           0.0000
       RIVER LEAKAGE =          74.6299         RIVER LEAKAGE =           7.1354
            RECHARGE =        2163.0000              RECHARGE =           0.0000

            TOTAL IN =        4846.7095              TOTAL IN =          44.2138

          OUT:                                     OUT:
          ----                                     ----
             STORAGE =        1735.4044               STORAGE =           0.0000
       CONSTANT HEAD =         521.4370         CONSTANT HEAD =           3.2140
       RIVER LEAKAGE =         719.1172         RIVER LEAKAGE =           0.0000
            RECHARGE =        1870.7500              RECHARGE =          41.0000

           TOTAL OUT =        4846.7085             TOTAL OUT =          44.2140

            IN - OUT =       9.7656E-04              IN - OUT =      -1.6022E-04

 PERCENT DISCREPANCY =           0.00     PERCENT DISCREPANCY =          -0.00






         TIME SUMMARY AT END OF TIME STEP    1 IN STRESS PERIOD  156
                    SECONDS     MINUTES      HOURS       DAYS        YEARS
                    -----------------------------------------------------------
   TIME STEP LENGTH  86400.      1440.0      24.000      1.0000     2.73785E-03
 STRESS PERIOD TIME  86400.      1440.0      24.000      1.0000     2.73785E-03
         TOTAL TIME 1.34784E+07 2.24640E+05  3744.0      156.00     0.42710    
1
1
                            STRESS PERIOD NO.  157, LENGTH =   1.000000    
                            -----------------------------------------------

                              NUMBER OF TIME STEPS =     1

                               MULTIPLIER FOR DELT =     1.000

                            INITIAL TIME STEP SIZE =   1.000000    

 REUSING NON-PARAMETER RIVER REACHES FROM LAST STRESS PERIOD

      2 RIVER REACHES

                 RECHARGE = -1.100000E-03
 
 SOLVING FOR HEAD 

 OUTPUT CONTROL FOR STRESS PERIOD  157   TIME STEP    1
    SAVE HEAD FOR ALL LAYERS

 HEAD WILL BE SAVED ON UNIT   51 AT END OF TIME STEP    1, STRESS PERIOD  157
1
  VOLUMETRIC BUDGET FOR ENTIRE MODEL AT END OF TIME STEP    1, STRESS PERIOD 157
  ------------------------------------------------------------------------------

     CUMULATIVE VOLUMES      L**3       RATES FOR THIS TIME STEP      L**3/T
     ------------------                 ------------------------

           IN:                                      IN:
           ---                                      ---
             STORAGE =        2619.3420               STORAGE =          10.2623
       CONSTANT HEAD =           0.0000         CONSTANT HEAD =           0.0000
       RIVER LEAKAGE =          80.9646         RIVER LEAKAGE =           6.3347
            RECHARGE =        2163.0000              RECHARGE =           0.0000

            TOTAL IN =        4863.3066              TOTAL IN =          16.5970

          OUT:                                     OUT:
          ----                                     ----
             STORAGE =        1737.7950               STORAGE =           2.3906
       CONSTANT HEAD =         524.6432         CONSTANT HEAD =           3.2063
       RIVER LEAKAGE =         719.1172         RIVER LEAKAGE =           0.0000
            RECHARGE =        1881.7500              RECHARGE =          11.0000

           TOTAL OUT =        4863.3057             TOTAL OUT =          16.5969

            IN - OUT =       9.7656E-04              IN - OUT =       1.4114E-04

 PERCENT DISCREPANCY =           0.00     PERCENT DISCREPANCY =           0.00






         TIME SUMMARY AT END OF TIME STEP    1 IN STRESS PERIOD  157
                    SECONDS     MINUTES      HOURS       DAYS        YEARS
                    -----------------------------------------------------------
   TIME STEP LENGTH  86400.      1440.0      24.000      1.0000     2.73785E-03
 STRESS PERIOD TIME  86400.      1440.0      24.000      1.0000     2.73785E-03
         TOTAL TIME 1.35648E+07 2.26080E+05  3768.0      157.00     0.42984    
1
1
                            STRESS PERIOD NO.  158, LENGTH =   1.000000    
                            -----------------------------------------------

                              NUMBER OF TIME STEPS =     1

                               MULTIPLIER FOR DELT =     1.000

                            INITIAL TIME STEP SIZE =   1.000000    

 REUSING NON-PARAMETER RIVER REACHES FROM LAST STRESS PERIOD

      2 RIVER REACHES

                 RECHARGE = -4.000000E-03
 
 SOLVING FOR HEAD 

 OUTPUT CONTROL FOR STRESS PERIOD  158   TIME STEP    1
    SAVE HEAD FOR ALL LAYERS

 HEAD WILL BE SAVED ON UNIT   51 AT END OF TIME STEP    1, STRESS PERIOD  158
1
  VOLUMETRIC BUDGET FOR ENTIRE MODEL AT END OF TIME STEP    1, STRESS PERIOD 158
  ------------------------------------------------------------------------------

     CUMULATIVE VOLUMES      L**3       RATES FOR THIS TIME STEP      L**3/T
     ------------------                 ------------------------

           IN:                                      IN:
           ---                                      ---
             STORAGE =        2655.6028               STORAGE =          36.2607
       CONSTANT HEAD =           0.0000         CONSTANT HEAD =           0.0000
       RIVER LEAKAGE =          87.9017         RIVER LEAKAGE =           6.9371
            RECHARGE =        2163.0000              RECHARGE =           0.0000

            TOTAL IN =        4906.5044              TOTAL IN =          43.1978

          OUT:                                     OUT:
          ----                                     ----
             STORAGE =        1737.7950               STORAGE =           0.0000
       CONSTANT HEAD =         527.8411         CONSTANT HEAD =           3.1979
       RIVER LEAKAGE =         719.1172         RIVER LEAKAGE =           0.0000
            RECHARGE =        1921.7500              RECHARGE =          40.0000

           TOTAL OUT =        4906.5034             TOTAL OUT =          43.1979

            IN - OUT =       9.7656E-04              IN - OUT =      -1.9073E-05

 PERCENT DISCREPANCY =           0.00     PERCENT DISCREPANCY =          -0.00






         TIME SUMMARY AT END OF TIME STEP    1 IN STRESS PERIOD  158
                    SECONDS     MINUTES      HOURS       DAYS        YEARS
                    -----------------------------------------------------------
   TIME STEP LENGTH  86400.      1440.0      24.000      1.0000     2.73785E-03
 STRESS PERIOD TIME  86400.      1440.0      24.000      1.0000     2.73785E-03
         TOTAL TIME 1.36512E+07 2.27520E+05  3792.0      158.00     0.43258    
1
1
                            STRESS PERIOD NO.  159, LENGTH =   1.000000    
                            -----------------------------------------------

                              NUMBER OF TIME STEPS =     1

                               MULTIPLIER FOR DELT =     1.000

                            INITIAL TIME STEP SIZE =   1.000000    

 REUSING NON-PARAMETER RIVER REACHES FROM LAST STRESS PERIOD

      2 RIVER REACHES

                 RECHARGE = -3.500000E-03
 
 SOLVING FOR HEAD 

 OUTPUT CONTROL FOR STRESS PERIOD  159   TIME STEP    1
    SAVE HEAD FOR ALL LAYERS

 HEAD WILL BE SAVED ON UNIT   51 AT END OF TIME STEP    1, STRESS PERIOD  159
1
  VOLUMETRIC BUDGET FOR ENTIRE MODEL AT END OF TIME STEP    1, STRESS PERIOD 159
  ------------------------------------------------------------------------------

     CUMULATIVE VOLUMES      L**3       RATES FOR THIS TIME STEP      L**3/T
     ------------------                 ------------------------

           IN:                                      IN:
           ---                                      ---
             STORAGE =        2686.6606               STORAGE =          31.0579
       CONSTANT HEAD =           0.0000         CONSTANT HEAD =           0.0000
       RIVER LEAKAGE =          95.0331         RIVER LEAKAGE =           7.1314
            RECHARGE =        2163.0000              RECHARGE =           0.0000

            TOTAL IN =        4944.6938              TOTAL IN =          38.1892

          OUT:                                     OUT:
          ----                                     ----
             STORAGE =        1737.7950               STORAGE =           0.0000
       CONSTANT HEAD =         531.0305         CONSTANT HEAD =           3.1894
       RIVER LEAKAGE =         719.1172         RIVER LEAKAGE =           0.0000
            RECHARGE =        1956.7500              RECHARGE =          35.0000

           TOTAL OUT =        4944.6924             TOTAL OUT =          38.1894

            IN - OUT =       1.4648E-03              IN - OUT =      -1.2207E-04

 PERCENT DISCREPANCY =           0.00     PERCENT DISCREPANCY =          -0.00






         TIME SUMMARY AT END OF TIME STEP    1 IN STRESS PERIOD  159
                    SECONDS     MINUTES      HOURS       DAYS        YEARS
                    -----------------------------------------------------------
   TIME STEP LENGTH  86400.      1440.0      24.000      1.0000     2.73785E-03
 STRESS PERIOD TIME  86400.      1440.0      24.000      1.0000     2.73785E-03
         TOTAL TIME 1.37376E+07 2.28960E+05  3816.0      159.00     0.43532    
1
1
                            STRESS PERIOD NO.  160, LENGTH =   1.000000    
                            -----------------------------------------------

                              NUMBER OF TIME STEPS =     1

                               MULTIPLIER FOR DELT =     1.000

                            INITIAL TIME STEP SIZE =   1.000000    

 REUSING NON-PARAMETER RIVER REACHES FROM LAST STRESS PERIOD

      2 RIVER REACHES

                 RECHARGE =  8.800000E-03
 
 SOLVING FOR HEAD 

 OUTPUT CONTROL FOR STRESS PERIOD  160   TIME STEP    1
    SAVE HEAD FOR ALL LAYERS

 HEAD WILL BE SAVED ON UNIT   51 AT END OF TIME STEP    1, STRESS PERIOD  160
1
  VOLUMETRIC BUDGET FOR ENTIRE MODEL AT END OF TIME STEP    1, STRESS PERIOD 160
  ------------------------------------------------------------------------------

     CUMULATIVE VOLUMES      L**3       RATES FOR THIS TIME STEP      L**3/T
     ------------------                 ------------------------

           IN:                                      IN:
           ---                                      ---
             STORAGE =        2687.1624               STORAGE =           0.5017
       CONSTANT HEAD =           0.0000         CONSTANT HEAD =           0.0000
       RIVER LEAKAGE =          98.1069         RIVER LEAKAGE =           3.0738
            RECHARGE =        2251.0000              RECHARGE =          88.0000

            TOTAL IN =        5036.2695              TOTAL IN =          91.5755

          OUT:                                     OUT:
          ----                                     ----
             STORAGE =        1826.1853               STORAGE =          88.3903
       CONSTANT HEAD =         534.2155         CONSTANT HEAD =           3.1850
       RIVER LEAKAGE =         719.1172         RIVER LEAKAGE =           0.0000
            RECHARGE =        1956.7500              RECHARGE =           0.0000

           TOTAL OUT =        5036.2681             TOTAL OUT =          91.5753

            IN - OUT =       1.4648E-03              IN - OUT =       1.8311E-04

 PERCENT DISCREPANCY =           0.00     PERCENT DISCREPANCY =           0.00






         TIME SUMMARY AT END OF TIME STEP    1 IN STRESS PERIOD  160
                    SECONDS     MINUTES      HOURS       DAYS        YEARS
                    -----------------------------------------------------------
   TIME STEP LENGTH  86400.      1440.0      24.000      1.0000     2.73785E-03
 STRESS PERIOD TIME  86400.      1440.0      24.000      1.0000     2.73785E-03
         TOTAL TIME 1.38240E+07 2.30400E+05  3840.0      160.00     0.43806    
1
1
                            STRESS PERIOD NO.  161, LENGTH =   1.000000    
                            -----------------------------------------------

                              NUMBER OF TIME STEPS =     1

                               MULTIPLIER FOR DELT =     1.000

                            INITIAL TIME STEP SIZE =   1.000000    

 REUSING NON-PARAMETER RIVER REACHES FROM LAST STRESS PERIOD

      2 RIVER REACHES

                 RECHARGE =  3.400000E-03
 
 SOLVING FOR HEAD 

 OUTPUT CONTROL FOR STRESS PERIOD  161   TIME STEP    1
    SAVE HEAD FOR ALL LAYERS

 HEAD WILL BE SAVED ON UNIT   51 AT END OF TIME STEP    1, STRESS PERIOD  161
1
  VOLUMETRIC BUDGET FOR ENTIRE MODEL AT END OF TIME STEP    1, STRESS PERIOD 161
  ------------------------------------------------------------------------------

     CUMULATIVE VOLUMES      L**3       RATES FOR THIS TIME STEP      L**3/T
     ------------------                 ------------------------

           IN:                                      IN:
           ---                                      ---
             STORAGE =        2687.6367               STORAGE =           0.4744
       CONSTANT HEAD =           0.0000         CONSTANT HEAD =           0.0000
       RIVER LEAKAGE =         100.5993         RIVER LEAKAGE =           2.4925
            RECHARGE =        2285.0000              RECHARGE =          34.0000

            TOTAL IN =        5073.2363              TOTAL IN =          36.9669

          OUT:                                     OUT:
          ----                                     ----
             STORAGE =        1859.9716               STORAGE =          33.7862
       CONSTANT HEAD =         537.3961         CONSTANT HEAD =           3.1806
       RIVER LEAKAGE =         719.1172         RIVER LEAKAGE =           0.0000
            RECHARGE =        1956.7500              RECHARGE =           0.0000

           TOTAL OUT =        5073.2349             TOTAL OUT =          36.9668

            IN - OUT =       1.4648E-03              IN - OUT =       6.8665E-05

 PERCENT DISCREPANCY =           0.00     PERCENT DISCREPANCY =           0.00






         TIME SUMMARY AT END OF TIME STEP    1 IN STRESS PERIOD  161
                    SECONDS     MINUTES      HOURS       DAYS        YEARS
                    -----------------------------------------------------------
   TIME STEP LENGTH  86400.      1440.0      24.000      1.0000     2.73785E-03
 STRESS PERIOD TIME  86400.      1440.0      24.000      1.0000     2.73785E-03
         TOTAL TIME 1.39104E+07 2.31840E+05  3864.0      161.00     0.44079    
1
1
                            STRESS PERIOD NO.  162, LENGTH =   1.000000    
                            -----------------------------------------------

                              NUMBER OF TIME STEPS =     1

                               MULTIPLIER FOR DELT =     1.000

                            INITIAL TIME STEP SIZE =   1.000000    

 REUSING NON-PARAMETER RIVER REACHES FROM LAST STRESS PERIOD

      2 RIVER REACHES

                 RECHARGE = -2.700000E-03
 
 SOLVING FOR HEAD 

 OUTPUT CONTROL FOR STRESS PERIOD  162   TIME STEP    1
    SAVE HEAD FOR ALL LAYERS

 HEAD WILL BE SAVED ON UNIT   51 AT END OF TIME STEP    1, STRESS PERIOD  162
1
  VOLUMETRIC BUDGET FOR ENTIRE MODEL AT END OF TIME STEP    1, STRESS PERIOD 162
  ------------------------------------------------------------------------------

     CUMULATIVE VOLUMES      L**3       RATES FOR THIS TIME STEP      L**3/T
     ------------------                 ------------------------

           IN:                                      IN:
           ---                                      ---
             STORAGE =        2713.8987               STORAGE =          26.2619
       CONSTANT HEAD =           0.0000         CONSTANT HEAD =           0.0000
       RIVER LEAKAGE =         104.5119         RIVER LEAKAGE =           3.9126
            RECHARGE =        2285.0000              RECHARGE =           0.0000

            TOTAL IN =        5103.4106              TOTAL IN =          30.1745

          OUT:                                     OUT:
          ----                                     ----
             STORAGE =        1859.9716               STORAGE =           0.0000
       CONSTANT HEAD =         540.5706         CONSTANT HEAD =           3.1745
       RIVER LEAKAGE =         719.1172         RIVER LEAKAGE =           0.0000
            RECHARGE =        1983.7500              RECHARGE =          27.0000

           TOTAL OUT =        5103.4092             TOTAL OUT =          30.1745

            IN - OUT =       1.4648E-03              IN - OUT =      -9.5367E-06

 PERCENT DISCREPANCY =           0.00     PERCENT DISCREPANCY =          -0.00






         TIME SUMMARY AT END OF TIME STEP    1 IN STRESS PERIOD  162
                    SECONDS     MINUTES      HOURS       DAYS        YEARS
                    -----------------------------------------------------------
   TIME STEP LENGTH  86400.      1440.0      24.000      1.0000     2.73785E-03
 STRESS PERIOD TIME  86400.      1440.0      24.000      1.0000     2.73785E-03
         TOTAL TIME 1.39968E+07 2.33280E+05  3888.0      162.00     0.44353    
1
1
                            STRESS PERIOD NO.  163, LENGTH =   1.000000    
                            -----------------------------------------------

                              NUMBER OF TIME STEPS =     1

                               MULTIPLIER FOR DELT =     1.000

                            INITIAL TIME STEP SIZE =   1.000000    

 REUSING NON-PARAMETER RIVER REACHES FROM LAST STRESS PERIOD

      2 RIVER REACHES

                 RECHARGE =  1.840000E-02
 
 SOLVING FOR HEAD 

 OUTPUT CONTROL FOR STRESS PERIOD  163   TIME STEP    1
    SAVE HEAD FOR ALL LAYERS

 HEAD WILL BE SAVED ON UNIT   51 AT END OF TIME STEP    1, STRESS PERIOD  163
1
  VOLUMETRIC BUDGET FOR ENTIRE MODEL AT END OF TIME STEP    1, STRESS PERIOD 163
  ------------------------------------------------------------------------------

     CUMULATIVE VOLUMES      L**3       RATES FOR THIS TIME STEP      L**3/T
     ------------------                 ------------------------

           IN:                                      IN:
           ---                                      ---
             STORAGE =        2714.2654               STORAGE =           0.3668
       CONSTANT HEAD =           0.0000         CONSTANT HEAD =           0.0000
       RIVER LEAKAGE =         104.5119         RIVER LEAKAGE =           0.0000
            RECHARGE =        2469.0000              RECHARGE =         184.0000

            TOTAL IN =        5287.7773              TOTAL IN =         184.3668

          OUT:                                     OUT:
          ----                                     ----
             STORAGE =        2038.4208               STORAGE =         178.4492
       CONSTANT HEAD =         543.7459         CONSTANT HEAD =           3.1753
       RIVER LEAKAGE =         721.8594         RIVER LEAKAGE =           2.7423
            RECHARGE =        1983.7500              RECHARGE =           0.0000

           TOTAL OUT =        5287.7764             TOTAL OUT =         184.3667

            IN - OUT =       9.7656E-04              IN - OUT =       3.0518E-05

 PERCENT DISCREPANCY =           0.00     PERCENT DISCREPANCY =           0.00






         TIME SUMMARY AT END OF TIME STEP    1 IN STRESS PERIOD  163
                    SECONDS     MINUTES      HOURS       DAYS        YEARS
                    -----------------------------------------------------------
   TIME STEP LENGTH  86400.      1440.0      24.000      1.0000     2.73785E-03
 STRESS PERIOD TIME  86400.      1440.0      24.000      1.0000     2.73785E-03
         TOTAL TIME 1.40832E+07 2.34720E+05  3912.0      163.00     0.44627    
1
1
                            STRESS PERIOD NO.  164, LENGTH =   1.000000    
                            -----------------------------------------------

                              NUMBER OF TIME STEPS =     1

                               MULTIPLIER FOR DELT =     1.000

                            INITIAL TIME STEP SIZE =   1.000000    

 REUSING NON-PARAMETER RIVER REACHES FROM LAST STRESS PERIOD

      2 RIVER REACHES

                 RECHARGE = -4.200000E-03
 
 SOLVING FOR HEAD 

 OUTPUT CONTROL FOR STRESS PERIOD  164   TIME STEP    1
    SAVE HEAD FOR ALL LAYERS

 HEAD WILL BE SAVED ON UNIT   51 AT END OF TIME STEP    1, STRESS PERIOD  164
1
  VOLUMETRIC BUDGET FOR ENTIRE MODEL AT END OF TIME STEP    1, STRESS PERIOD 164
  ------------------------------------------------------------------------------

     CUMULATIVE VOLUMES      L**3       RATES FOR THIS TIME STEP      L**3/T
     ------------------                 ------------------------

           IN:                                      IN:
           ---                                      ---
             STORAGE =        2758.4324               STORAGE =          44.1671
       CONSTANT HEAD =           0.0000         CONSTANT HEAD =           0.0000
       RIVER LEAKAGE =         105.5157         RIVER LEAKAGE =           1.0038
            RECHARGE =        2469.0000              RECHARGE =           0.0000

            TOTAL IN =        5332.9482              TOTAL IN =          45.1709

          OUT:                                     OUT:
          ----                                     ----
             STORAGE =        2038.4208               STORAGE =           0.0000
       CONSTANT HEAD =         546.9170         CONSTANT HEAD =           3.1711
       RIVER LEAKAGE =         721.8594         RIVER LEAKAGE =           0.0000
            RECHARGE =        2025.7500              RECHARGE =          42.0000

           TOTAL OUT =        5332.9473             TOTAL OUT =          45.1711

            IN - OUT =       9.7656E-04              IN - OUT =      -1.9836E-04

 PERCENT DISCREPANCY =           0.00     PERCENT DISCREPANCY =          -0.00






         TIME SUMMARY AT END OF TIME STEP    1 IN STRESS PERIOD  164
                    SECONDS     MINUTES      HOURS       DAYS        YEARS
                    -----------------------------------------------------------
   TIME STEP LENGTH  86400.      1440.0      24.000      1.0000     2.73785E-03
 STRESS PERIOD TIME  86400.      1440.0      24.000      1.0000     2.73785E-03
         TOTAL TIME 1.41696E+07 2.36160E+05  3936.0      164.00     0.44901    
1
1
                            STRESS PERIOD NO.  165, LENGTH =   1.000000    
                            -----------------------------------------------

                              NUMBER OF TIME STEPS =     1

                               MULTIPLIER FOR DELT =     1.000

                            INITIAL TIME STEP SIZE =   1.000000    

 REUSING NON-PARAMETER RIVER REACHES FROM LAST STRESS PERIOD

      2 RIVER REACHES

                 RECHARGE = -3.575000E-03
 
 SOLVING FOR HEAD 

 OUTPUT CONTROL FOR STRESS PERIOD  165   TIME STEP    1
    SAVE HEAD FOR ALL LAYERS

 HEAD WILL BE SAVED ON UNIT   51 AT END OF TIME STEP    1, STRESS PERIOD  165
1
  VOLUMETRIC BUDGET FOR ENTIRE MODEL AT END OF TIME STEP    1, STRESS PERIOD 165
  ------------------------------------------------------------------------------

     CUMULATIVE VOLUMES      L**3       RATES FOR THIS TIME STEP      L**3/T
     ------------------                 ------------------------

           IN:                                      IN:
           ---                                      ---
             STORAGE =        2794.8689               STORAGE =          36.4364
       CONSTANT HEAD =           0.0000         CONSTANT HEAD =           0.0000
       RIVER LEAKAGE =         107.9950         RIVER LEAKAGE =           2.4793
            RECHARGE =        2469.0000              RECHARGE =           0.0000

            TOTAL IN =        5371.8643              TOTAL IN =          38.9158

          OUT:                                     OUT:
          ----                                     ----
             STORAGE =        2038.4208               STORAGE =           0.0000
       CONSTANT HEAD =         550.0828         CONSTANT HEAD =           3.1659
       RIVER LEAKAGE =         721.8594         RIVER LEAKAGE =           0.0000
            RECHARGE =        2061.5000              RECHARGE =          35.7500

           TOTAL OUT =        5371.8633             TOTAL OUT =          38.9159

            IN - OUT =       9.7656E-04              IN - OUT =      -8.7738E-05

 PERCENT DISCREPANCY =           0.00     PERCENT DISCREPANCY =          -0.00






         TIME SUMMARY AT END OF TIME STEP    1 IN STRESS PERIOD  165
                    SECONDS     MINUTES      HOURS       DAYS        YEARS
                    -----------------------------------------------------------
   TIME STEP LENGTH  86400.      1440.0      24.000      1.0000     2.73785E-03
 STRESS PERIOD TIME  86400.      1440.0      24.000      1.0000     2.73785E-03
         TOTAL TIME 1.42560E+07 2.37600E+05  3960.0      165.00     0.45175    
1
1
                            STRESS PERIOD NO.  166, LENGTH =   1.000000    
                            -----------------------------------------------

                              NUMBER OF TIME STEPS =     1

                               MULTIPLIER FOR DELT =     1.000

                            INITIAL TIME STEP SIZE =   1.000000    

 REUSING NON-PARAMETER RIVER REACHES FROM LAST STRESS PERIOD

      2 RIVER REACHES

                 RECHARGE = -1.575000E-03
 
 SOLVING FOR HEAD 

 OUTPUT CONTROL FOR STRESS PERIOD  166   TIME STEP    1
    SAVE HEAD FOR ALL LAYERS

 HEAD WILL BE SAVED ON UNIT   51 AT END OF TIME STEP    1, STRESS PERIOD  166
1
  VOLUMETRIC BUDGET FOR ENTIRE MODEL AT END OF TIME STEP    1, STRESS PERIOD 166
  ------------------------------------------------------------------------------

     CUMULATIVE VOLUMES      L**3       RATES FOR THIS TIME STEP      L**3/T
     ------------------                 ------------------------

           IN:                                      IN:
           ---                                      ---
             STORAGE =        2811.0471               STORAGE =          16.1782
       CONSTANT HEAD =           0.0000         CONSTANT HEAD =           0.0000
       RIVER LEAKAGE =         110.7274         RIVER LEAKAGE =           2.7324
            RECHARGE =        2469.0000              RECHARGE =           0.0000

            TOTAL IN =        5390.7744              TOTAL IN =          18.9105

          OUT:                                     OUT:
          ----                                     ----
             STORAGE =        2038.4208               STORAGE =           0.0000
       CONSTANT HEAD =         553.2435         CONSTANT HEAD =           3.1606
       RIVER LEAKAGE =         721.8594         RIVER LEAKAGE =           0.0000
            RECHARGE =        2077.2500              RECHARGE =          15.7500

           TOTAL OUT =        5390.7734             TOTAL OUT =          18.9106

            IN - OUT =       9.7656E-04              IN - OUT =      -1.2016E-04

 PERCENT DISCREPANCY =           0.00     PERCENT DISCREPANCY =          -0.00






         TIME SUMMARY AT END OF TIME STEP    1 IN STRESS PERIOD  166
                    SECONDS     MINUTES      HOURS       DAYS        YEARS
                    -----------------------------------------------------------
   TIME STEP LENGTH  86400.      1440.0      24.000      1.0000     2.73785E-03
 STRESS PERIOD TIME  86400.      1440.0      24.000      1.0000     2.73785E-03
         TOTAL TIME 1.43424E+07 2.39040E+05  3984.0      166.00     0.45448    
1
1
                            STRESS PERIOD NO.  167, LENGTH =   1.000000    
                            -----------------------------------------------

                              NUMBER OF TIME STEPS =     1

                               MULTIPLIER FOR DELT =     1.000

                            INITIAL TIME STEP SIZE =   1.000000    

 REUSING NON-PARAMETER RIVER REACHES FROM LAST STRESS PERIOD

      2 RIVER REACHES

                 RECHARGE = -3.600000E-03
 
 SOLVING FOR HEAD 

 OUTPUT CONTROL FOR STRESS PERIOD  167   TIME STEP    1
    SAVE HEAD FOR ALL LAYERS

 HEAD WILL BE SAVED ON UNIT   51 AT END OF TIME STEP    1, STRESS PERIOD  167
1
  VOLUMETRIC BUDGET FOR ENTIRE MODEL AT END OF TIME STEP    1, STRESS PERIOD 167
  ------------------------------------------------------------------------------

     CUMULATIVE VOLUMES      L**3       RATES FOR THIS TIME STEP      L**3/T
     ------------------                 ------------------------

           IN:                                      IN:
           ---                                      ---
             STORAGE =        2846.4958               STORAGE =          35.4486
       CONSTANT HEAD =           0.0000         CONSTANT HEAD =           0.0000
       RIVER LEAKAGE =         114.4332         RIVER LEAKAGE =           3.7058
            RECHARGE =        2469.0000              RECHARGE =           0.0000

            TOTAL IN =        5429.9287              TOTAL IN =          39.1544

          OUT:                                     OUT:
          ----                                     ----
             STORAGE =        2038.4208               STORAGE =           0.0000
       CONSTANT HEAD =         556.3980         CONSTANT HEAD =           3.1546
       RIVER LEAKAGE =         721.8594         RIVER LEAKAGE =           0.0000
            RECHARGE =        2113.2500              RECHARGE =          36.0000

           TOTAL OUT =        5429.9282             TOTAL OUT =          39.1546

            IN - OUT =       4.8828E-04              IN - OUT =      -1.6785E-04

 PERCENT DISCREPANCY =           0.00     PERCENT DISCREPANCY =          -0.00






         TIME SUMMARY AT END OF TIME STEP    1 IN STRESS PERIOD  167
                    SECONDS     MINUTES      HOURS       DAYS        YEARS
                    -----------------------------------------------------------
   TIME STEP LENGTH  86400.      1440.0      24.000      1.0000     2.73785E-03
 STRESS PERIOD TIME  86400.      1440.0      24.000      1.0000     2.73785E-03
         TOTAL TIME 1.44288E+07 2.40480E+05  4008.0      167.00     0.45722    
1
1
                            STRESS PERIOD NO.  168, LENGTH =   1.000000    
                            -----------------------------------------------

                              NUMBER OF TIME STEPS =     1

                               MULTIPLIER FOR DELT =     1.000

                            INITIAL TIME STEP SIZE =   1.000000    

 REUSING NON-PARAMETER RIVER REACHES FROM LAST STRESS PERIOD

      2 RIVER REACHES

                 RECHARGE = -5.200000E-03
 
 SOLVING FOR HEAD 

 OUTPUT CONTROL FOR STRESS PERIOD  168   TIME STEP    1
    SAVE HEAD FOR ALL LAYERS

 HEAD WILL BE SAVED ON UNIT   51 AT END OF TIME STEP    1, STRESS PERIOD  168
1
  VOLUMETRIC BUDGET FOR ENTIRE MODEL AT END OF TIME STEP    1, STRESS PERIOD 168
  ------------------------------------------------------------------------------

     CUMULATIVE VOLUMES      L**3       RATES FOR THIS TIME STEP      L**3/T
     ------------------                 ------------------------

           IN:                                      IN:
           ---                                      ---
             STORAGE =        2896.7168               STORAGE =          50.2211
       CONSTANT HEAD =           0.0000         CONSTANT HEAD =           0.0000
       RIVER LEAKAGE =         119.3597         RIVER LEAKAGE =           4.9265
            RECHARGE =        2469.0000              RECHARGE =           0.0000

            TOTAL IN =        5485.0762              TOTAL IN =          55.1476

          OUT:                                     OUT:
          ----                                     ----
             STORAGE =        2038.4208               STORAGE =           0.0000
       CONSTANT HEAD =         559.5455         CONSTANT HEAD =           3.1475
       RIVER LEAKAGE =         721.8594         RIVER LEAKAGE =           0.0000
            RECHARGE =        2165.2500              RECHARGE =          52.0000

           TOTAL OUT =        5485.0757             TOTAL OUT =          55.1475

            IN - OUT =       4.8828E-04              IN - OUT =       9.1553E-05

 PERCENT DISCREPANCY =           0.00     PERCENT DISCREPANCY =           0.00






         TIME SUMMARY AT END OF TIME STEP    1 IN STRESS PERIOD  168
                    SECONDS     MINUTES      HOURS       DAYS        YEARS
                    -----------------------------------------------------------
   TIME STEP LENGTH  86400.      1440.0      24.000      1.0000     2.73785E-03
 STRESS PERIOD TIME  86400.      1440.0      24.000      1.0000     2.73785E-03
         TOTAL TIME 1.45152E+07 2.41920E+05  4032.0      168.00     0.45996    
1
1
                            STRESS PERIOD NO.  169, LENGTH =   1.000000    
                            -----------------------------------------------

                              NUMBER OF TIME STEPS =     1

                               MULTIPLIER FOR DELT =     1.000

                            INITIAL TIME STEP SIZE =   1.000000    

 REUSING NON-PARAMETER RIVER REACHES FROM LAST STRESS PERIOD

      2 RIVER REACHES

                 RECHARGE = -4.600000E-03
 
 SOLVING FOR HEAD 

 OUTPUT CONTROL FOR STRESS PERIOD  169   TIME STEP    1
    SAVE HEAD FOR ALL LAYERS

 HEAD WILL BE SAVED ON UNIT   51 AT END OF TIME STEP    1, STRESS PERIOD  169
1
  VOLUMETRIC BUDGET FOR ENTIRE MODEL AT END OF TIME STEP    1, STRESS PERIOD 169
  ------------------------------------------------------------------------------

     CUMULATIVE VOLUMES      L**3       RATES FOR THIS TIME STEP      L**3/T
     ------------------                 ------------------------

           IN:                                      IN:
           ---                                      ---
             STORAGE =        2940.2625               STORAGE =          43.5456
       CONSTANT HEAD =           0.0000         CONSTANT HEAD =           0.0000
       RIVER LEAKAGE =         124.9541         RIVER LEAKAGE =           5.5944
            RECHARGE =        2469.0000              RECHARGE =           0.0000

            TOTAL IN =        5534.2168              TOTAL IN =          49.1400

          OUT:                                     OUT:
          ----                                     ----
             STORAGE =        2038.4208               STORAGE =           0.0000
       CONSTANT HEAD =         562.6855         CONSTANT HEAD =           3.1400
       RIVER LEAKAGE =         721.8594         RIVER LEAKAGE =           0.0000
            RECHARGE =        2211.2500              RECHARGE =          46.0000

           TOTAL OUT =        5534.2158             TOTAL OUT =          49.1400

            IN - OUT =       9.7656E-04              IN - OUT =       3.8147E-06

 PERCENT DISCREPANCY =           0.00     PERCENT DISCREPANCY =           0.00






         TIME SUMMARY AT END OF TIME STEP    1 IN STRESS PERIOD  169
                    SECONDS     MINUTES      HOURS       DAYS        YEARS
                    -----------------------------------------------------------
   TIME STEP LENGTH  86400.      1440.0      24.000      1.0000     2.73785E-03
 STRESS PERIOD TIME  86400.      1440.0      24.000      1.0000     2.73785E-03
         TOTAL TIME 1.46016E+07 2.43360E+05  4056.0      169.00     0.46270    
1
1
                            STRESS PERIOD NO.  170, LENGTH =   1.000000    
                            -----------------------------------------------

                              NUMBER OF TIME STEPS =     1

                               MULTIPLIER FOR DELT =     1.000

                            INITIAL TIME STEP SIZE =   1.000000    

 REUSING NON-PARAMETER RIVER REACHES FROM LAST STRESS PERIOD

      2 RIVER REACHES

                 RECHARGE = -2.300000E-03
 
 SOLVING FOR HEAD 

 OUTPUT CONTROL FOR STRESS PERIOD  170   TIME STEP    1
    SAVE HEAD FOR ALL LAYERS

 HEAD WILL BE SAVED ON UNIT   51 AT END OF TIME STEP    1, STRESS PERIOD  170
1
  VOLUMETRIC BUDGET FOR ENTIRE MODEL AT END OF TIME STEP    1, STRESS PERIOD 170
  ------------------------------------------------------------------------------

     CUMULATIVE VOLUMES      L**3       RATES FOR THIS TIME STEP      L**3/T
     ------------------                 ------------------------

           IN:                                      IN:
           ---                                      ---
             STORAGE =        2961.0808               STORAGE =          20.8183
       CONSTANT HEAD =           0.0000         CONSTANT HEAD =           0.0000
       RIVER LEAKAGE =         130.3416         RIVER LEAKAGE =           5.3875
            RECHARGE =        2469.0000              RECHARGE =           0.0000

            TOTAL IN =        5560.4224              TOTAL IN =          26.2058

          OUT:                                     OUT:
          ----                                     ----
             STORAGE =        2038.4939               STORAGE =       7.3083E-02
       CONSTANT HEAD =         565.8185         CONSTANT HEAD =           3.1330
       RIVER LEAKAGE =         721.8594         RIVER LEAKAGE =           0.0000
            RECHARGE =        2234.2500              RECHARGE =          23.0000

           TOTAL OUT =        5560.4219             TOTAL OUT =          26.2061

            IN - OUT =       4.8828E-04              IN - OUT =      -2.1172E-04

 PERCENT DISCREPANCY =           0.00     PERCENT DISCREPANCY =          -0.00






         TIME SUMMARY AT END OF TIME STEP    1 IN STRESS PERIOD  170
                    SECONDS     MINUTES      HOURS       DAYS        YEARS
                    -----------------------------------------------------------
   TIME STEP LENGTH  86400.      1440.0      24.000      1.0000     2.73785E-03
 STRESS PERIOD TIME  86400.      1440.0      24.000      1.0000     2.73785E-03
         TOTAL TIME 1.46880E+07 2.44800E+05  4080.0      170.00     0.46543    
1
1
                            STRESS PERIOD NO.  171, LENGTH =   1.000000    
                            -----------------------------------------------

                              NUMBER OF TIME STEPS =     1

                               MULTIPLIER FOR DELT =     1.000

                            INITIAL TIME STEP SIZE =   1.000000    

 REUSING NON-PARAMETER RIVER REACHES FROM LAST STRESS PERIOD

      2 RIVER REACHES

                 RECHARGE = -2.900000E-03
 
 SOLVING FOR HEAD 

 OUTPUT CONTROL FOR STRESS PERIOD  171   TIME STEP    1
    SAVE HEAD FOR ALL LAYERS

 HEAD WILL BE SAVED ON UNIT   51 AT END OF TIME STEP    1, STRESS PERIOD  171
1
  VOLUMETRIC BUDGET FOR ENTIRE MODEL AT END OF TIME STEP    1, STRESS PERIOD 171
  ------------------------------------------------------------------------------

     CUMULATIVE VOLUMES      L**3       RATES FOR THIS TIME STEP      L**3/T
     ------------------                 ------------------------

           IN:                                      IN:
           ---                                      ---
             STORAGE =        2987.5825               STORAGE =          26.5017
       CONSTANT HEAD =           0.0000         CONSTANT HEAD =           0.0000
       RIVER LEAKAGE =         135.9654         RIVER LEAKAGE =           5.6239
            RECHARGE =        2469.0000              RECHARGE =           0.0000

            TOTAL IN =        5592.5479              TOTAL IN =          32.1255

          OUT:                                     OUT:
          ----                                     ----
             STORAGE =        2038.4939               STORAGE =           0.0000
       CONSTANT HEAD =         568.9442         CONSTANT HEAD =           3.1257
       RIVER LEAKAGE =         721.8594         RIVER LEAKAGE =           0.0000
            RECHARGE =        2263.2500              RECHARGE =          29.0000

           TOTAL OUT =        5592.5474             TOTAL OUT =          32.1257

            IN - OUT =       4.8828E-04              IN - OUT =      -2.0218E-04

 PERCENT DISCREPANCY =           0.00     PERCENT DISCREPANCY =          -0.00






         TIME SUMMARY AT END OF TIME STEP    1 IN STRESS PERIOD  171
                    SECONDS     MINUTES      HOURS       DAYS        YEARS
                    -----------------------------------------------------------
   TIME STEP LENGTH  86400.      1440.0      24.000      1.0000     2.73785E-03
 STRESS PERIOD TIME  86400.      1440.0      24.000      1.0000     2.73785E-03
         TOTAL TIME 1.47744E+07 2.46240E+05  4104.0      171.00     0.46817    
1
1
                            STRESS PERIOD NO.  172, LENGTH =   1.000000    
                            -----------------------------------------------

                              NUMBER OF TIME STEPS =     1

                               MULTIPLIER FOR DELT =     1.000

                            INITIAL TIME STEP SIZE =   1.000000    

 REUSING NON-PARAMETER RIVER REACHES FROM LAST STRESS PERIOD

      2 RIVER REACHES

                 RECHARGE = -4.800000E-03
 
 SOLVING FOR HEAD 

 OUTPUT CONTROL FOR STRESS PERIOD  172   TIME STEP    1
    SAVE HEAD FOR ALL LAYERS

 HEAD WILL BE SAVED ON UNIT   51 AT END OF TIME STEP    1, STRESS PERIOD  172
1
  VOLUMETRIC BUDGET FOR ENTIRE MODEL AT END OF TIME STEP    1, STRESS PERIOD 172
  ------------------------------------------------------------------------------

     CUMULATIVE VOLUMES      L**3       RATES FOR THIS TIME STEP      L**3/T
     ------------------                 ------------------------

           IN:                                      IN:
           ---                                      ---
             STORAGE =        3032.2000               STORAGE =          44.6174
       CONSTANT HEAD =           0.0000         CONSTANT HEAD =           0.0000
       RIVER LEAKAGE =         142.4656         RIVER LEAKAGE =           6.5002
            RECHARGE =        2469.0000              RECHARGE =           0.0000

            TOTAL IN =        5643.6655              TOTAL IN =          51.1176

          OUT:                                     OUT:
          ----                                     ----
             STORAGE =        2038.4939               STORAGE =           0.0000
       CONSTANT HEAD =         572.0620         CONSTANT HEAD =           3.1177
       RIVER LEAKAGE =         721.8594         RIVER LEAKAGE =           0.0000
            RECHARGE =        2311.2500              RECHARGE =          48.0000

           TOTAL OUT =        5643.6650             TOTAL OUT =          51.1177

            IN - OUT =       4.8828E-04              IN - OUT =      -1.2970E-04

 PERCENT DISCREPANCY =           0.00     PERCENT DISCREPANCY =          -0.00






         TIME SUMMARY AT END OF TIME STEP    1 IN STRESS PERIOD  172
                    SECONDS     MINUTES      HOURS       DAYS        YEARS
                    -----------------------------------------------------------
   TIME STEP LENGTH  86400.      1440.0      24.000      1.0000     2.73785E-03
 STRESS PERIOD TIME  86400.      1440.0      24.000      1.0000     2.73785E-03
         TOTAL TIME 1.48608E+07 2.47680E+05  4128.0      172.00     0.47091    
1
1
                            STRESS PERIOD NO.  173, LENGTH =   1.000000    
                            -----------------------------------------------

                              NUMBER OF TIME STEPS =     1

                               MULTIPLIER FOR DELT =     1.000

                            INITIAL TIME STEP SIZE =   1.000000    

 REUSING NON-PARAMETER RIVER REACHES FROM LAST STRESS PERIOD

      2 RIVER REACHES

                 RECHARGE = -5.600000E-03
 
 SOLVING FOR HEAD 

 OUTPUT CONTROL FOR STRESS PERIOD  173   TIME STEP    1
    SAVE HEAD FOR ALL LAYERS

 HEAD WILL BE SAVED ON UNIT   51 AT END OF TIME STEP    1, STRESS PERIOD  173
1
  VOLUMETRIC BUDGET FOR ENTIRE MODEL AT END OF TIME STEP    1, STRESS PERIOD 173
  ------------------------------------------------------------------------------

     CUMULATIVE VOLUMES      L**3       RATES FOR THIS TIME STEP      L**3/T
     ------------------                 ------------------------

           IN:                                      IN:
           ---                                      ---
             STORAGE =        3083.9146               STORAGE =          51.7145
       CONSTANT HEAD =           0.0000         CONSTANT HEAD =           0.0000
       RIVER LEAKAGE =         149.8602         RIVER LEAKAGE =           7.3946
            RECHARGE =        2469.0000              RECHARGE =           0.0000

            TOTAL IN =        5702.7744              TOTAL IN =          59.1091

          OUT:                                     OUT:
          ----                                     ----
             STORAGE =        2038.4939               STORAGE =           0.0000
       CONSTANT HEAD =         575.1710         CONSTANT HEAD =           3.1090
       RIVER LEAKAGE =         721.8594         RIVER LEAKAGE =           0.0000
            RECHARGE =        2367.2500              RECHARGE =          56.0000

           TOTAL OUT =        5702.7744             TOTAL OUT =          59.1090

            IN - OUT =           0.0000              IN - OUT =       1.0681E-04

 PERCENT DISCREPANCY =           0.00     PERCENT DISCREPANCY =           0.00






         TIME SUMMARY AT END OF TIME STEP    1 IN STRESS PERIOD  173
                    SECONDS     MINUTES      HOURS       DAYS        YEARS
                    -----------------------------------------------------------
   TIME STEP LENGTH  86400.      1440.0      24.000      1.0000     2.73785E-03
 STRESS PERIOD TIME  86400.      1440.0      24.000      1.0000     2.73785E-03
         TOTAL TIME 1.49472E+07 2.49120E+05  4152.0      173.00     0.47365    
1
1
                            STRESS PERIOD NO.  174, LENGTH =   1.000000    
                            -----------------------------------------------

                              NUMBER OF TIME STEPS =     1

                               MULTIPLIER FOR DELT =     1.000

                            INITIAL TIME STEP SIZE =   1.000000    

 REUSING NON-PARAMETER RIVER REACHES FROM LAST STRESS PERIOD

      2 RIVER REACHES

                 RECHARGE = -4.500000E-03
 
 SOLVING FOR HEAD 

 OUTPUT CONTROL FOR STRESS PERIOD  174   TIME STEP    1
    SAVE HEAD FOR ALL LAYERS

 HEAD WILL BE SAVED ON UNIT   51 AT END OF TIME STEP    1, STRESS PERIOD  174
1
  VOLUMETRIC BUDGET FOR ENTIRE MODEL AT END OF TIME STEP    1, STRESS PERIOD 174
  ------------------------------------------------------------------------------

     CUMULATIVE VOLUMES      L**3       RATES FOR THIS TIME STEP      L**3/T
     ------------------                 ------------------------

           IN:                                      IN:
           ---                                      ---
             STORAGE =        3124.3120               STORAGE =          40.3974
       CONSTANT HEAD =           0.0000         CONSTANT HEAD =           0.0000
       RIVER LEAKAGE =         157.5631         RIVER LEAKAGE =           7.7029
            RECHARGE =        2469.0000              RECHARGE =           0.0000

            TOTAL IN =        5750.8750              TOTAL IN =          48.1003

          OUT:                                     OUT:
          ----                                     ----
             STORAGE =        2038.4939               STORAGE =           0.0000
       CONSTANT HEAD =         578.2712         CONSTANT HEAD =           3.1002
       RIVER LEAKAGE =         721.8594         RIVER LEAKAGE =           0.0000
            RECHARGE =        2412.2500              RECHARGE =          45.0000

           TOTAL OUT =        5750.8745             TOTAL OUT =          48.1002

            IN - OUT =       4.8828E-04              IN - OUT =       8.7738E-05

 PERCENT DISCREPANCY =           0.00     PERCENT DISCREPANCY =           0.00






         TIME SUMMARY AT END OF TIME STEP    1 IN STRESS PERIOD  174
                    SECONDS     MINUTES      HOURS       DAYS        YEARS
                    -----------------------------------------------------------
   TIME STEP LENGTH  86400.      1440.0      24.000      1.0000     2.73785E-03
 STRESS PERIOD TIME  86400.      1440.0      24.000      1.0000     2.73785E-03
         TOTAL TIME 1.50336E+07 2.50560E+05  4176.0      174.00     0.47639    
1
1
                            STRESS PERIOD NO.  175, LENGTH =   1.000000    
                            -----------------------------------------------

                              NUMBER OF TIME STEPS =     1

                               MULTIPLIER FOR DELT =     1.000

                            INITIAL TIME STEP SIZE =   1.000000    

 REUSING NON-PARAMETER RIVER REACHES FROM LAST STRESS PERIOD

      2 RIVER REACHES

                 RECHARGE = -4.900000E-03
 
 SOLVING FOR HEAD 

 OUTPUT CONTROL FOR STRESS PERIOD  175   TIME STEP    1
    SAVE HEAD FOR ALL LAYERS

 HEAD WILL BE SAVED ON UNIT   51 AT END OF TIME STEP    1, STRESS PERIOD  175
1
  VOLUMETRIC BUDGET FOR ENTIRE MODEL AT END OF TIME STEP    1, STRESS PERIOD 175
  ------------------------------------------------------------------------------

     CUMULATIVE VOLUMES      L**3       RATES FOR THIS TIME STEP      L**3/T
     ------------------                 ------------------------

           IN:                                      IN:
           ---                                      ---
             STORAGE =        3168.2068               STORAGE =          43.8947
       CONSTANT HEAD =           0.0000         CONSTANT HEAD =           0.0000
       RIVER LEAKAGE =         165.7595         RIVER LEAKAGE =           8.1964
            RECHARGE =        2469.0000              RECHARGE =           0.0000

            TOTAL IN =        5802.9663              TOTAL IN =          52.0911

          OUT:                                     OUT:
          ----                                     ----
             STORAGE =        2038.4939               STORAGE =           0.0000
       CONSTANT HEAD =         581.3623         CONSTANT HEAD =           3.0911
       RIVER LEAKAGE =         721.8594         RIVER LEAKAGE =           0.0000
            RECHARGE =        2461.2500              RECHARGE =          49.0000

           TOTAL OUT =        5802.9658             TOTAL OUT =          52.0911

            IN - OUT =       4.8828E-04              IN - OUT =      -7.6294E-06

 PERCENT DISCREPANCY =           0.00     PERCENT DISCREPANCY =          -0.00






         TIME SUMMARY AT END OF TIME STEP    1 IN STRESS PERIOD  175
                    SECONDS     MINUTES      HOURS       DAYS        YEARS
                    -----------------------------------------------------------
   TIME STEP LENGTH  86400.      1440.0      24.000      1.0000     2.73785E-03
 STRESS PERIOD TIME  86400.      1440.0      24.000      1.0000     2.73785E-03
         TOTAL TIME 1.51200E+07 2.52000E+05  4200.0      175.00     0.47912    
1
1
                            STRESS PERIOD NO.  176, LENGTH =   1.000000    
                            -----------------------------------------------

                              NUMBER OF TIME STEPS =     1

                               MULTIPLIER FOR DELT =     1.000

                            INITIAL TIME STEP SIZE =   1.000000    

 REUSING NON-PARAMETER RIVER REACHES FROM LAST STRESS PERIOD

      2 RIVER REACHES

                 RECHARGE = -3.000000E-03
 
 SOLVING FOR HEAD 

 OUTPUT CONTROL FOR STRESS PERIOD  176   TIME STEP    1
    SAVE HEAD FOR ALL LAYERS

 HEAD WILL BE SAVED ON UNIT   51 AT END OF TIME STEP    1, STRESS PERIOD  176
1
  VOLUMETRIC BUDGET FOR ENTIRE MODEL AT END OF TIME STEP    1, STRESS PERIOD 176
  ------------------------------------------------------------------------------

     CUMULATIVE VOLUMES      L**3       RATES FOR THIS TIME STEP      L**3/T
     ------------------                 ------------------------

           IN:                                      IN:
           ---                                      ---
             STORAGE =        3193.4258               STORAGE =          25.2191
       CONSTANT HEAD =           0.0000         CONSTANT HEAD =           0.0000
       RIVER LEAKAGE =         173.7349         RIVER LEAKAGE =           7.9754
            RECHARGE =        2469.0000              RECHARGE =           0.0000

            TOTAL IN =        5836.1606              TOTAL IN =          33.1945

          OUT:                                     OUT:
          ----                                     ----
             STORAGE =        2038.6061               STORAGE =           0.1122
       CONSTANT HEAD =         584.4446         CONSTANT HEAD =           3.0824
       RIVER LEAKAGE =         721.8594         RIVER LEAKAGE =           0.0000
            RECHARGE =        2491.2500              RECHARGE =          30.0000

           TOTAL OUT =        5836.1602             TOTAL OUT =          33.1945

            IN - OUT =       4.8828E-04              IN - OUT =      -1.9073E-05

 PERCENT DISCREPANCY =           0.00     PERCENT DISCREPANCY =          -0.00






         TIME SUMMARY AT END OF TIME STEP    1 IN STRESS PERIOD  176
                    SECONDS     MINUTES      HOURS       DAYS        YEARS
                    -----------------------------------------------------------
   TIME STEP LENGTH  86400.      1440.0      24.000      1.0000     2.73785E-03
 STRESS PERIOD TIME  86400.      1440.0      24.000      1.0000     2.73785E-03
         TOTAL TIME 1.52064E+07 2.53440E+05  4224.0      176.00     0.48186    
1
1
                            STRESS PERIOD NO.  177, LENGTH =   1.000000    
                            -----------------------------------------------

                              NUMBER OF TIME STEPS =     1

                               MULTIPLIER FOR DELT =     1.000

                            INITIAL TIME STEP SIZE =   1.000000    

 REUSING NON-PARAMETER RIVER REACHES FROM LAST STRESS PERIOD

      2 RIVER REACHES

                 RECHARGE = -3.800000E-03
 
 SOLVING FOR HEAD 

 OUTPUT CONTROL FOR STRESS PERIOD  177   TIME STEP    1
    SAVE HEAD FOR ALL LAYERS

 HEAD WILL BE SAVED ON UNIT   51 AT END OF TIME STEP    1, STRESS PERIOD  177
1
  VOLUMETRIC BUDGET FOR ENTIRE MODEL AT END OF TIME STEP    1, STRESS PERIOD 177
  ------------------------------------------------------------------------------

     CUMULATIVE VOLUMES      L**3       RATES FOR THIS TIME STEP      L**3/T
     ------------------                 ------------------------

           IN:                                      IN:
           ---                                      ---
             STORAGE =        3226.2532               STORAGE =          32.8274
       CONSTANT HEAD =           0.0000         CONSTANT HEAD =           0.0000
       RIVER LEAKAGE =         181.9810         RIVER LEAKAGE =           8.2461
            RECHARGE =        2469.0000              RECHARGE =           0.0000

            TOTAL IN =        5877.2344              TOTAL IN =          41.0735

          OUT:                                     OUT:
          ----                                     ----
             STORAGE =        2038.6061               STORAGE =           0.0000
       CONSTANT HEAD =         587.5180         CONSTANT HEAD =           3.0734
       RIVER LEAKAGE =         721.8594         RIVER LEAKAGE =           0.0000
            RECHARGE =        2529.2500              RECHARGE =          38.0000

           TOTAL OUT =        5877.2334             TOTAL OUT =          41.0734

            IN - OUT =       9.7656E-04              IN - OUT =       1.0300E-04

 PERCENT DISCREPANCY =           0.00     PERCENT DISCREPANCY =           0.00






         TIME SUMMARY AT END OF TIME STEP    1 IN STRESS PERIOD  177
                    SECONDS     MINUTES      HOURS       DAYS        YEARS
                    -----------------------------------------------------------
   TIME STEP LENGTH  86400.      1440.0      24.000      1.0000     2.73785E-03
 STRESS PERIOD TIME  86400.      1440.0      24.000      1.0000     2.73785E-03
         TOTAL TIME 1.52928E+07 2.54880E+05  4248.0      177.00     0.48460    
1
1
                            STRESS PERIOD NO.  178, LENGTH =   1.000000    
                            -----------------------------------------------

                              NUMBER OF TIME STEPS =     1

                               MULTIPLIER FOR DELT =     1.000

                            INITIAL TIME STEP SIZE =   1.000000    

 REUSING NON-PARAMETER RIVER REACHES FROM LAST STRESS PERIOD

      2 RIVER REACHES

                 RECHARGE =  4.900000E-03
 
 SOLVING FOR HEAD 

 OUTPUT CONTROL FOR STRESS PERIOD  178   TIME STEP    1
    SAVE HEAD FOR ALL LAYERS

 HEAD WILL BE SAVED ON UNIT   51 AT END OF TIME STEP    1, STRESS PERIOD  178
1
  VOLUMETRIC BUDGET FOR ENTIRE MODEL AT END OF TIME STEP    1, STRESS PERIOD 178
  ------------------------------------------------------------------------------

     CUMULATIVE VOLUMES      L**3       RATES FOR THIS TIME STEP      L**3/T
     ------------------                 ------------------------

           IN:                                      IN:
           ---                                      ---
             STORAGE =        3226.8088               STORAGE =           0.5557
       CONSTANT HEAD =           0.0000         CONSTANT HEAD =           0.0000
       RIVER LEAKAGE =         187.4603         RIVER LEAKAGE =           5.4794
            RECHARGE =        2518.0000              RECHARGE =          49.0000

            TOTAL IN =        5932.2695              TOTAL IN =          55.0351

          OUT:                                     OUT:
          ----                                     ----
             STORAGE =        2090.5737               STORAGE =          51.9678
       CONSTANT HEAD =         590.5853         CONSTANT HEAD =           3.0673
       RIVER LEAKAGE =         721.8594         RIVER LEAKAGE =           0.0000
            RECHARGE =        2529.2500              RECHARGE =           0.0000

           TOTAL OUT =        5932.2686             TOTAL OUT =          55.0350

            IN - OUT =       9.7656E-04              IN - OUT =       3.0518E-05

 PERCENT DISCREPANCY =           0.00     PERCENT DISCREPANCY =           0.00






         TIME SUMMARY AT END OF TIME STEP    1 IN STRESS PERIOD  178
                    SECONDS     MINUTES      HOURS       DAYS        YEARS
                    -----------------------------------------------------------
   TIME STEP LENGTH  86400.      1440.0      24.000      1.0000     2.73785E-03
 STRESS PERIOD TIME  86400.      1440.0      24.000      1.0000     2.73785E-03
         TOTAL TIME 1.53792E+07 2.56320E+05  4272.0      178.00     0.48734    
1
1
                            STRESS PERIOD NO.  179, LENGTH =   1.000000    
                            -----------------------------------------------

                              NUMBER OF TIME STEPS =     1

                               MULTIPLIER FOR DELT =     1.000

                            INITIAL TIME STEP SIZE =   1.000000    

 REUSING NON-PARAMETER RIVER REACHES FROM LAST STRESS PERIOD

      2 RIVER REACHES

                 RECHARGE =  3.200000E-03
 
 SOLVING FOR HEAD 

 OUTPUT CONTROL FOR STRESS PERIOD  179   TIME STEP    1
    SAVE HEAD FOR ALL LAYERS

 HEAD WILL BE SAVED ON UNIT   51 AT END OF TIME STEP    1, STRESS PERIOD  179
1
  VOLUMETRIC BUDGET FOR ENTIRE MODEL AT END OF TIME STEP    1, STRESS PERIOD 179
  ------------------------------------------------------------------------------

     CUMULATIVE VOLUMES      L**3       RATES FOR THIS TIME STEP      L**3/T
     ------------------                 ------------------------

           IN:                                      IN:
           ---                                      ---
             STORAGE =        3227.3362               STORAGE =           0.5273
       CONSTANT HEAD =           0.0000         CONSTANT HEAD =           0.0000
       RIVER LEAKAGE =         191.8918         RIVER LEAKAGE =           4.4314
            RECHARGE =        2550.0000              RECHARGE =          32.0000

            TOTAL IN =        5969.2280              TOTAL IN =          36.9587

          OUT:                                     OUT:
          ----                                     ----
             STORAGE =        2124.4707               STORAGE =          33.8969
       CONSTANT HEAD =         593.6472         CONSTANT HEAD =           3.0618
       RIVER LEAKAGE =         721.8594         RIVER LEAKAGE =           0.0000
            RECHARGE =        2529.2500              RECHARGE =           0.0000

           TOTAL OUT =        5969.2275             TOTAL OUT =          36.9587

            IN - OUT =       4.8828E-04              IN - OUT =      -7.6294E-05

 PERCENT DISCREPANCY =           0.00     PERCENT DISCREPANCY =          -0.00






         TIME SUMMARY AT END OF TIME STEP    1 IN STRESS PERIOD  179
                    SECONDS     MINUTES      HOURS       DAYS        YEARS
                    -----------------------------------------------------------
   TIME STEP LENGTH  86400.      1440.0      24.000      1.0000     2.73785E-03
 STRESS PERIOD TIME  86400.      1440.0      24.000      1.0000     2.73785E-03
         TOTAL TIME 1.54656E+07 2.57760E+05  4296.0      179.00     0.49008    
1
1
                            STRESS PERIOD NO.  180, LENGTH =   1.000000    
                            -----------------------------------------------

                              NUMBER OF TIME STEPS =     1

                               MULTIPLIER FOR DELT =     1.000

                            INITIAL TIME STEP SIZE =   1.000000    

 REUSING NON-PARAMETER RIVER REACHES FROM LAST STRESS PERIOD

      2 RIVER REACHES

                 RECHARGE = -4.200000E-03
 
 SOLVING FOR HEAD 

 OUTPUT CONTROL FOR STRESS PERIOD  180   TIME STEP    1
    SAVE HEAD FOR ALL LAYERS

 HEAD WILL BE SAVED ON UNIT   51 AT END OF TIME STEP    1, STRESS PERIOD  180
1
  VOLUMETRIC BUDGET FOR ENTIRE MODEL AT END OF TIME STEP    1, STRESS PERIOD 180
  ------------------------------------------------------------------------------

     CUMULATIVE VOLUMES      L**3       RATES FOR THIS TIME STEP      L**3/T
     ------------------                 ------------------------

           IN:                                      IN:
           ---                                      ---
             STORAGE =        3266.2537               STORAGE =          38.9174
       CONSTANT HEAD =           0.0000         CONSTANT HEAD =           0.0000
       RIVER LEAKAGE =         198.0288         RIVER LEAKAGE =           6.1370
            RECHARGE =        2550.0000              RECHARGE =           0.0000

            TOTAL IN =        6014.2822              TOTAL IN =          45.0544

          OUT:                                     OUT:
          ----                                     ----
             STORAGE =        2124.4707               STORAGE =           0.0000
       CONSTANT HEAD =         596.7015         CONSTANT HEAD =           3.0544
       RIVER LEAKAGE =         721.8594         RIVER LEAKAGE =           0.0000
            RECHARGE =        2571.2500              RECHARGE =          42.0000

           TOTAL OUT =        6014.2817             TOTAL OUT =          45.0544

            IN - OUT =       4.8828E-04              IN - OUT =      -1.1444E-05

 PERCENT DISCREPANCY =           0.00     PERCENT DISCREPANCY =          -0.00






         TIME SUMMARY AT END OF TIME STEP    1 IN STRESS PERIOD  180
                    SECONDS     MINUTES      HOURS       DAYS        YEARS
                    -----------------------------------------------------------
   TIME STEP LENGTH  86400.      1440.0      24.000      1.0000     2.73785E-03
 STRESS PERIOD TIME  86400.      1440.0      24.000      1.0000     2.73785E-03
         TOTAL TIME 1.55520E+07 2.59200E+05  4320.0      180.00     0.49281    
1
1
                            STRESS PERIOD NO.  181, LENGTH =   1.000000    
                            -----------------------------------------------

                              NUMBER OF TIME STEPS =     1

                               MULTIPLIER FOR DELT =     1.000

                            INITIAL TIME STEP SIZE =   1.000000    

 REUSING NON-PARAMETER RIVER REACHES FROM LAST STRESS PERIOD

      2 RIVER REACHES

                 RECHARGE =   0.00000    
 
 SOLVING FOR HEAD 

 OUTPUT CONTROL FOR STRESS PERIOD  181   TIME STEP    1
    SAVE HEAD FOR ALL LAYERS

 HEAD WILL BE SAVED ON UNIT   51 AT END OF TIME STEP    1, STRESS PERIOD  181
1
  VOLUMETRIC BUDGET FOR ENTIRE MODEL AT END OF TIME STEP    1, STRESS PERIOD 181
  ------------------------------------------------------------------------------

     CUMULATIVE VOLUMES      L**3       RATES FOR THIS TIME STEP      L**3/T
     ------------------                 ------------------------

           IN:                                      IN:
           ---                                      ---
             STORAGE =        3267.9070               STORAGE =           1.6534
       CONSTANT HEAD =           0.0000         CONSTANT HEAD =           0.0000
       RIVER LEAKAGE =         203.5880         RIVER LEAKAGE =           5.5592
            RECHARGE =        2550.0000              RECHARGE =           0.0000

            TOTAL IN =        6021.4951              TOTAL IN =           7.2126

          OUT:                                     OUT:
          ----                                     ----
             STORAGE =        2128.6355               STORAGE =           4.1648
       CONSTANT HEAD =         599.7493         CONSTANT HEAD =           3.0478
       RIVER LEAKAGE =         721.8594         RIVER LEAKAGE =           0.0000
            RECHARGE =        2571.2500              RECHARGE =           0.0000

           TOTAL OUT =        6021.4941             TOTAL OUT =           7.2126

            IN - OUT =       9.7656E-04              IN - OUT =      -1.4305E-05

 PERCENT DISCREPANCY =           0.00     PERCENT DISCREPANCY =          -0.00






         TIME SUMMARY AT END OF TIME STEP    1 IN STRESS PERIOD  181
                    SECONDS     MINUTES      HOURS       DAYS        YEARS
                    -----------------------------------------------------------
   TIME STEP LENGTH  86400.      1440.0      24.000      1.0000     2.73785E-03
 STRESS PERIOD TIME  86400.      1440.0      24.000      1.0000     2.73785E-03
         TOTAL TIME 1.56384E+07 2.60640E+05  4344.0      181.00     0.49555    
1
1
                            STRESS PERIOD NO.  182, LENGTH =   1.000000    
                            -----------------------------------------------

                              NUMBER OF TIME STEPS =     1

                               MULTIPLIER FOR DELT =     1.000

                            INITIAL TIME STEP SIZE =   1.000000    

 REUSING NON-PARAMETER RIVER REACHES FROM LAST STRESS PERIOD

      2 RIVER REACHES

                 RECHARGE =  2.000000E-03
 
 SOLVING FOR HEAD 

 OUTPUT CONTROL FOR STRESS PERIOD  182   TIME STEP    1
    SAVE HEAD FOR ALL LAYERS

 HEAD WILL BE SAVED ON UNIT   51 AT END OF TIME STEP    1, STRESS PERIOD  182
1
  VOLUMETRIC BUDGET FOR ENTIRE MODEL AT END OF TIME STEP    1, STRESS PERIOD 182
  ------------------------------------------------------------------------------

     CUMULATIVE VOLUMES      L**3       RATES FOR THIS TIME STEP      L**3/T
     ------------------                 ------------------------

           IN:                                      IN:
           ---                                      ---
             STORAGE =        3268.4224               STORAGE =           0.5153
       CONSTANT HEAD =           0.0000         CONSTANT HEAD =           0.0000
       RIVER LEAKAGE =         208.1661         RIVER LEAKAGE =           4.5782
            RECHARGE =        2570.0000              RECHARGE =          20.0000

            TOTAL IN =        6046.5884              TOTAL IN =          25.0935

          OUT:                                     OUT:
          ----                                     ----
             STORAGE =        2150.6870               STORAGE =          22.0514
       CONSTANT HEAD =         602.7914         CONSTANT HEAD =           3.0421
       RIVER LEAKAGE =         721.8594         RIVER LEAKAGE =           0.0000
            RECHARGE =        2571.2500              RECHARGE =           0.0000

           TOTAL OUT =        6046.5879             TOTAL OUT =          25.0935

            IN - OUT =       4.8828E-04              IN - OUT =       2.0981E-05

 PERCENT DISCREPANCY =           0.00     PERCENT DISCREPANCY =           0.00






         TIME SUMMARY AT END OF TIME STEP    1 IN STRESS PERIOD  182
                    SECONDS     MINUTES      HOURS       DAYS        YEARS
                    -----------------------------------------------------------
   TIME STEP LENGTH  86400.      1440.0      24.000      1.0000     2.73785E-03
 STRESS PERIOD TIME  86400.      1440.0      24.000      1.0000     2.73785E-03
         TOTAL TIME 1.57248E+07 2.62080E+05  4368.0      182.00     0.49829    
1
1
                            STRESS PERIOD NO.  183, LENGTH =   1.000000    
                            -----------------------------------------------

                              NUMBER OF TIME STEPS =     1

                               MULTIPLIER FOR DELT =     1.000

                            INITIAL TIME STEP SIZE =   1.000000    

 REUSING NON-PARAMETER RIVER REACHES FROM LAST STRESS PERIOD

      2 RIVER REACHES

                 RECHARGE = -2.100000E-03
 
 SOLVING FOR HEAD 

 OUTPUT CONTROL FOR STRESS PERIOD  183   TIME STEP    1
    SAVE HEAD FOR ALL LAYERS

 HEAD WILL BE SAVED ON UNIT   51 AT END OF TIME STEP    1, STRESS PERIOD  183
1
  VOLUMETRIC BUDGET FOR ENTIRE MODEL AT END OF TIME STEP    1, STRESS PERIOD 183
  ------------------------------------------------------------------------------

     CUMULATIVE VOLUMES      L**3       RATES FOR THIS TIME STEP      L**3/T
     ------------------                 ------------------------

           IN:                                      IN:
           ---                                      ---
             STORAGE =        3287.0984               STORAGE =          18.6761
       CONSTANT HEAD =           0.0000         CONSTANT HEAD =           0.0000
       RIVER LEAKAGE =         213.5254         RIVER LEAKAGE =           5.3593
            RECHARGE =        2570.0000              RECHARGE =           0.0000

            TOTAL IN =        6070.6240              TOTAL IN =          24.0354

          OUT:                                     OUT:
          ----                                     ----
             STORAGE =        2150.6870               STORAGE =           0.0000
       CONSTANT HEAD =         605.8270         CONSTANT HEAD =           3.0355
       RIVER LEAKAGE =         721.8594         RIVER LEAKAGE =           0.0000
            RECHARGE =        2592.2500              RECHARGE =          21.0000

           TOTAL OUT =        6070.6230             TOTAL OUT =          24.0355

            IN - OUT =       9.7656E-04              IN - OUT =      -9.3460E-05

 PERCENT DISCREPANCY =           0.00     PERCENT DISCREPANCY =          -0.00






         TIME SUMMARY AT END OF TIME STEP    1 IN STRESS PERIOD  183
                    SECONDS     MINUTES      HOURS       DAYS        YEARS
                    -----------------------------------------------------------
   TIME STEP LENGTH  86400.      1440.0      24.000      1.0000     2.73785E-03
 STRESS PERIOD TIME  86400.      1440.0      24.000      1.0000     2.73785E-03
         TOTAL TIME 1.58112E+07 2.63520E+05  4392.0      183.00     0.50103    
1
1
                            STRESS PERIOD NO.  184, LENGTH =   1.000000    
                            -----------------------------------------------

                              NUMBER OF TIME STEPS =     1

                               MULTIPLIER FOR DELT =     1.000

                            INITIAL TIME STEP SIZE =   1.000000    

 REUSING NON-PARAMETER RIVER REACHES FROM LAST STRESS PERIOD

      2 RIVER REACHES

                 RECHARGE =  2.400000E-03
 
 SOLVING FOR HEAD 

 OUTPUT CONTROL FOR STRESS PERIOD  184   TIME STEP    1
    SAVE HEAD FOR ALL LAYERS

 HEAD WILL BE SAVED ON UNIT   51 AT END OF TIME STEP    1, STRESS PERIOD  184
1
  VOLUMETRIC BUDGET FOR ENTIRE MODEL AT END OF TIME STEP    1, STRESS PERIOD 184
  ------------------------------------------------------------------------------

     CUMULATIVE VOLUMES      L**3       RATES FOR THIS TIME STEP      L**3/T
     ------------------                 ------------------------

           IN:                                      IN:
           ---                                      ---
             STORAGE =        3287.5962               STORAGE =           0.4977
       CONSTANT HEAD =           0.0000         CONSTANT HEAD =           0.0000
       RIVER LEAKAGE =         217.7079         RIVER LEAKAGE =           4.1825
            RECHARGE =        2594.0000              RECHARGE =          24.0000

            TOTAL IN =        6099.3042              TOTAL IN =          28.6802

          OUT:                                     OUT:
          ----                                     ----
             STORAGE =        2176.3369               STORAGE =          25.6500
       CONSTANT HEAD =         608.8572         CONSTANT HEAD =           3.0302
       RIVER LEAKAGE =         721.8594         RIVER LEAKAGE =           0.0000
            RECHARGE =        2592.2500              RECHARGE =           0.0000

           TOTAL OUT =        6099.3037             TOTAL OUT =          28.6802

            IN - OUT =       4.8828E-04              IN - OUT =       3.4332E-05

 PERCENT DISCREPANCY =           0.00     PERCENT DISCREPANCY =           0.00






         TIME SUMMARY AT END OF TIME STEP    1 IN STRESS PERIOD  184
                    SECONDS     MINUTES      HOURS       DAYS        YEARS
                    -----------------------------------------------------------
   TIME STEP LENGTH  86400.      1440.0      24.000      1.0000     2.73785E-03
 STRESS PERIOD TIME  86400.      1440.0      24.000      1.0000     2.73785E-03
         TOTAL TIME 1.58976E+07 2.64960E+05  4416.0      184.00     0.50376    
1
1
                            STRESS PERIOD NO.  185, LENGTH =   1.000000    
                            -----------------------------------------------

                              NUMBER OF TIME STEPS =     1

                               MULTIPLIER FOR DELT =     1.000

                            INITIAL TIME STEP SIZE =   1.000000    

 REUSING NON-PARAMETER RIVER REACHES FROM LAST STRESS PERIOD

      2 RIVER REACHES

                 RECHARGE =  5.400000E-03
 
 SOLVING FOR HEAD 

 OUTPUT CONTROL FOR STRESS PERIOD  185   TIME STEP    1
    SAVE HEAD FOR ALL LAYERS

 HEAD WILL BE SAVED ON UNIT   51 AT END OF TIME STEP    1, STRESS PERIOD  185
1
  VOLUMETRIC BUDGET FOR ENTIRE MODEL AT END OF TIME STEP    1, STRESS PERIOD 185
  ------------------------------------------------------------------------------

     CUMULATIVE VOLUMES      L**3       RATES FOR THIS TIME STEP      L**3/T
     ------------------                 ------------------------

           IN:                                      IN:
           ---                                      ---
             STORAGE =        3288.0540               STORAGE =           0.4578
       CONSTANT HEAD =           0.0000         CONSTANT HEAD =           0.0000
       RIVER LEAKAGE =         220.1427         RIVER LEAKAGE =           2.4349
            RECHARGE =        2648.0000              RECHARGE =          54.0000

            TOTAL IN =        6156.1968              TOTAL IN =          56.8926

          OUT:                                     OUT:
          ----                                     ----
             STORAGE =        2230.2029               STORAGE =          53.8661
       CONSTANT HEAD =         611.8836         CONSTANT HEAD =           3.0264
       RIVER LEAKAGE =         721.8594         RIVER LEAKAGE =           0.0000
            RECHARGE =        2592.2500              RECHARGE =           0.0000

           TOTAL OUT =        6156.1958             TOTAL OUT =          56.8925

            IN - OUT =       9.7656E-04              IN - OUT =       9.1553E-05

 PERCENT DISCREPANCY =           0.00     PERCENT DISCREPANCY =           0.00






         TIME SUMMARY AT END OF TIME STEP    1 IN STRESS PERIOD  185
                    SECONDS     MINUTES      HOURS       DAYS        YEARS
                    -----------------------------------------------------------
   TIME STEP LENGTH  86400.      1440.0      24.000      1.0000     2.73785E-03
 STRESS PERIOD TIME  86400.      1440.0      24.000      1.0000     2.73785E-03
         TOTAL TIME 1.59840E+07 2.66400E+05  4440.0      185.00     0.50650    
1
1
                            STRESS PERIOD NO.  186, LENGTH =   1.000000    
                            -----------------------------------------------

                              NUMBER OF TIME STEPS =     1

                               MULTIPLIER FOR DELT =     1.000

                            INITIAL TIME STEP SIZE =   1.000000    

 REUSING NON-PARAMETER RIVER REACHES FROM LAST STRESS PERIOD

      2 RIVER REACHES

                 RECHARGE = -2.200000E-03
 
 SOLVING FOR HEAD 

 OUTPUT CONTROL FOR STRESS PERIOD  186   TIME STEP    1
    SAVE HEAD FOR ALL LAYERS

 HEAD WILL BE SAVED ON UNIT   51 AT END OF TIME STEP    1, STRESS PERIOD  186
1
  VOLUMETRIC BUDGET FOR ENTIRE MODEL AT END OF TIME STEP    1, STRESS PERIOD 186
  ------------------------------------------------------------------------------

     CUMULATIVE VOLUMES      L**3       RATES FOR THIS TIME STEP      L**3/T
     ------------------                 ------------------------

           IN:                                      IN:
           ---                                      ---
             STORAGE =        3309.1960               STORAGE =          21.1420
       CONSTANT HEAD =           0.0000         CONSTANT HEAD =           0.0000
       RIVER LEAKAGE =         224.0217         RIVER LEAKAGE =           3.8789
            RECHARGE =        2648.0000              RECHARGE =           0.0000

            TOTAL IN =        6181.2178              TOTAL IN =          25.0209

          OUT:                                     OUT:
          ----                                     ----
             STORAGE =        2230.2029               STORAGE =           0.0000
       CONSTANT HEAD =         614.9045         CONSTANT HEAD =           3.0209
       RIVER LEAKAGE =         721.8594         RIVER LEAKAGE =           0.0000
            RECHARGE =        2614.2500              RECHARGE =          22.0000

           TOTAL OUT =        6181.2168             TOTAL OUT =          25.0209

            IN - OUT =       9.7656E-04              IN - OUT =      -1.5259E-05

 PERCENT DISCREPANCY =           0.00     PERCENT DISCREPANCY =          -0.00






         TIME SUMMARY AT END OF TIME STEP    1 IN STRESS PERIOD  186
                    SECONDS     MINUTES      HOURS       DAYS        YEARS
                    -----------------------------------------------------------
   TIME STEP LENGTH  86400.      1440.0      24.000      1.0000     2.73785E-03
 STRESS PERIOD TIME  86400.      1440.0      24.000      1.0000     2.73785E-03
         TOTAL TIME 1.60704E+07 2.67840E+05  4464.0      186.00     0.50924    
1
1
                            STRESS PERIOD NO.  187, LENGTH =   1.000000    
                            -----------------------------------------------

                              NUMBER OF TIME STEPS =     1

                               MULTIPLIER FOR DELT =     1.000

                            INITIAL TIME STEP SIZE =   1.000000    

 REUSING NON-PARAMETER RIVER REACHES FROM LAST STRESS PERIOD

      2 RIVER REACHES

                 RECHARGE = -2.300000E-03
 
 SOLVING FOR HEAD 

 OUTPUT CONTROL FOR STRESS PERIOD  187   TIME STEP    1
    SAVE HEAD FOR ALL LAYERS

 HEAD WILL BE SAVED ON UNIT   51 AT END OF TIME STEP    1, STRESS PERIOD  187
1
  VOLUMETRIC BUDGET FOR ENTIRE MODEL AT END OF TIME STEP    1, STRESS PERIOD 187
  ------------------------------------------------------------------------------

     CUMULATIVE VOLUMES      L**3       RATES FOR THIS TIME STEP      L**3/T
     ------------------                 ------------------------

           IN:                                      IN:
           ---                                      ---
             STORAGE =        3330.6199               STORAGE =          21.4239
       CONSTANT HEAD =           0.0000         CONSTANT HEAD =           0.0000
       RIVER LEAKAGE =         228.6125         RIVER LEAKAGE =           4.5909
            RECHARGE =        2648.0000              RECHARGE =           0.0000

            TOTAL IN =        6207.2324              TOTAL IN =          26.0148

          OUT:                                     OUT:
          ----                                     ----
             STORAGE =        2230.2029               STORAGE =           0.0000
       CONSTANT HEAD =         617.9194         CONSTANT HEAD =           3.0149
       RIVER LEAKAGE =         721.8594         RIVER LEAKAGE =           0.0000
            RECHARGE =        2637.2500              RECHARGE =          23.0000

           TOTAL OUT =        6207.2314             TOTAL OUT =          26.0149

            IN - OUT =       9.7656E-04              IN - OUT =      -7.4387E-05

 PERCENT DISCREPANCY =           0.00     PERCENT DISCREPANCY =          -0.00






         TIME SUMMARY AT END OF TIME STEP    1 IN STRESS PERIOD  187
                    SECONDS     MINUTES      HOURS       DAYS        YEARS
                    -----------------------------------------------------------
   TIME STEP LENGTH  86400.      1440.0      24.000      1.0000     2.73785E-03
 STRESS PERIOD TIME  86400.      1440.0      24.000      1.0000     2.73785E-03
         TOTAL TIME 1.61568E+07 2.69280E+05  4488.0      187.00     0.51198    
1
1
                            STRESS PERIOD NO.  188, LENGTH =   1.000000    
                            -----------------------------------------------

                              NUMBER OF TIME STEPS =     1

                               MULTIPLIER FOR DELT =     1.000

                            INITIAL TIME STEP SIZE =   1.000000    

 REUSING NON-PARAMETER RIVER REACHES FROM LAST STRESS PERIOD

      2 RIVER REACHES

                 RECHARGE = -3.575000E-03
 
 SOLVING FOR HEAD 

 OUTPUT CONTROL FOR STRESS PERIOD  188   TIME STEP    1
    SAVE HEAD FOR ALL LAYERS

 HEAD WILL BE SAVED ON UNIT   51 AT END OF TIME STEP    1, STRESS PERIOD  188
1
  VOLUMETRIC BUDGET FOR ENTIRE MODEL AT END OF TIME STEP    1, STRESS PERIOD 188
  ------------------------------------------------------------------------------

     CUMULATIVE VOLUMES      L**3       RATES FOR THIS TIME STEP      L**3/T
     ------------------                 ------------------------

           IN:                                      IN:
           ---                                      ---
             STORAGE =        3363.8843               STORAGE =          33.2644
       CONSTANT HEAD =           0.0000         CONSTANT HEAD =           0.0000
       RIVER LEAKAGE =         234.1060         RIVER LEAKAGE =           5.4935
            RECHARGE =        2648.0000              RECHARGE =           0.0000

            TOTAL IN =        6245.9902              TOTAL IN =          38.7579

          OUT:                                     OUT:
          ----                                     ----
             STORAGE =        2230.2029               STORAGE =           0.0000
       CONSTANT HEAD =         620.9275         CONSTANT HEAD =           3.0081
       RIVER LEAKAGE =         721.8594         RIVER LEAKAGE =           0.0000
            RECHARGE =        2673.0000              RECHARGE =          35.7500

           TOTAL OUT =        6245.9897             TOTAL OUT =          38.7581

            IN - OUT =       4.8828E-04              IN - OUT =      -1.4114E-04

 PERCENT DISCREPANCY =           0.00     PERCENT DISCREPANCY =          -0.00






         TIME SUMMARY AT END OF TIME STEP    1 IN STRESS PERIOD  188
                    SECONDS     MINUTES      HOURS       DAYS        YEARS
                    -----------------------------------------------------------
   TIME STEP LENGTH  86400.      1440.0      24.000      1.0000     2.73785E-03
 STRESS PERIOD TIME  86400.      1440.0      24.000      1.0000     2.73785E-03
         TOTAL TIME 1.62432E+07 2.70720E+05  4512.0      188.00     0.51472    
1
1
                            STRESS PERIOD NO.  189, LENGTH =   1.000000    
                            -----------------------------------------------

                              NUMBER OF TIME STEPS =     1

                               MULTIPLIER FOR DELT =     1.000

                            INITIAL TIME STEP SIZE =   1.000000    

 REUSING NON-PARAMETER RIVER REACHES FROM LAST STRESS PERIOD

      2 RIVER REACHES

                 RECHARGE = -3.400000E-03
 
 SOLVING FOR HEAD 

 OUTPUT CONTROL FOR STRESS PERIOD  189   TIME STEP    1
    SAVE HEAD FOR ALL LAYERS

 HEAD WILL BE SAVED ON UNIT   51 AT END OF TIME STEP    1, STRESS PERIOD  189
1
  VOLUMETRIC BUDGET FOR ENTIRE MODEL AT END OF TIME STEP    1, STRESS PERIOD 189
  ------------------------------------------------------------------------------

     CUMULATIVE VOLUMES      L**3       RATES FOR THIS TIME STEP      L**3/T
     ------------------                 ------------------------

           IN:                                      IN:
           ---                                      ---
             STORAGE =        3394.8320               STORAGE =          30.9478
       CONSTANT HEAD =           0.0000         CONSTANT HEAD =           0.0000
       RIVER LEAKAGE =         240.1591         RIVER LEAKAGE =           6.0531
            RECHARGE =        2648.0000              RECHARGE =           0.0000

            TOTAL IN =        6282.9912              TOTAL IN =          37.0009

          OUT:                                     OUT:
          ----                                     ----
             STORAGE =        2230.2029               STORAGE =           0.0000
       CONSTANT HEAD =         623.9284         CONSTANT HEAD =           3.0009
       RIVER LEAKAGE =         721.8594         RIVER LEAKAGE =           0.0000
            RECHARGE =        2707.0000              RECHARGE =          34.0000

           TOTAL OUT =        6282.9907             TOTAL OUT =          37.0009

            IN - OUT =       4.8828E-04              IN - OUT =      -8.3923E-05

 PERCENT DISCREPANCY =           0.00     PERCENT DISCREPANCY =          -0.00






         TIME SUMMARY AT END OF TIME STEP    1 IN STRESS PERIOD  189
                    SECONDS     MINUTES      HOURS       DAYS        YEARS
                    -----------------------------------------------------------
   TIME STEP LENGTH  86400.      1440.0      24.000      1.0000     2.73785E-03
 STRESS PERIOD TIME  86400.      1440.0      24.000      1.0000     2.73785E-03
         TOTAL TIME 1.63296E+07 2.72160E+05  4536.0      189.00     0.51745    
1
1
                            STRESS PERIOD NO.  190, LENGTH =   1.000000    
                            -----------------------------------------------

                              NUMBER OF TIME STEPS =     1

                               MULTIPLIER FOR DELT =     1.000

                            INITIAL TIME STEP SIZE =   1.000000    

 REUSING NON-PARAMETER RIVER REACHES FROM LAST STRESS PERIOD

      2 RIVER REACHES

                 RECHARGE =  1.300000E-02
 
 SOLVING FOR HEAD 

 OUTPUT CONTROL FOR STRESS PERIOD  190   TIME STEP    1
    SAVE HEAD FOR ALL LAYERS

 HEAD WILL BE SAVED ON UNIT   51 AT END OF TIME STEP    1, STRESS PERIOD  190
1
  VOLUMETRIC BUDGET FOR ENTIRE MODEL AT END OF TIME STEP    1, STRESS PERIOD 190
  ------------------------------------------------------------------------------

     CUMULATIVE VOLUMES      L**3       RATES FOR THIS TIME STEP      L**3/T
     ------------------                 ------------------------

           IN:                                      IN:
           ---                                      ---
             STORAGE =        3395.2454               STORAGE =           0.4134
       CONSTANT HEAD =           0.0000         CONSTANT HEAD =           0.0000
       RIVER LEAKAGE =         240.9901         RIVER LEAKAGE =           0.8310
            RECHARGE =        2778.0000              RECHARGE =         130.0000

            TOTAL IN =        6414.2354              TOTAL IN =         131.2444

          OUT:                                     OUT:
          ----                                     ----
             STORAGE =        2358.4482               STORAGE =         128.2453
       CONSTANT HEAD =         626.9276         CONSTANT HEAD =           2.9992
       RIVER LEAKAGE =         721.8594         RIVER LEAKAGE =           0.0000
            RECHARGE =        2707.0000              RECHARGE =           0.0000

           TOTAL OUT =        6414.2354             TOTAL OUT =         131.2445

            IN - OUT =           0.0000              IN - OUT =      -6.1035E-05

 PERCENT DISCREPANCY =           0.00     PERCENT DISCREPANCY =          -0.00






         TIME SUMMARY AT END OF TIME STEP    1 IN STRESS PERIOD  190
                    SECONDS     MINUTES      HOURS       DAYS        YEARS
                    -----------------------------------------------------------
   TIME STEP LENGTH  86400.      1440.0      24.000      1.0000     2.73785E-03
 STRESS PERIOD TIME  86400.      1440.0      24.000      1.0000     2.73785E-03
         TOTAL TIME 1.64160E+07 2.73600E+05  4560.0      190.00     0.52019    
1
1
                            STRESS PERIOD NO.  191, LENGTH =   1.000000    
                            -----------------------------------------------

                              NUMBER OF TIME STEPS =     1

                               MULTIPLIER FOR DELT =     1.000

                            INITIAL TIME STEP SIZE =   1.000000    

 REUSING NON-PARAMETER RIVER REACHES FROM LAST STRESS PERIOD

      2 RIVER REACHES

                 RECHARGE = -3.975000E-03
 
 SOLVING FOR HEAD 

 OUTPUT CONTROL FOR STRESS PERIOD  191   TIME STEP    1
    SAVE HEAD FOR ALL LAYERS

 HEAD WILL BE SAVED ON UNIT   51 AT END OF TIME STEP    1, STRESS PERIOD  191
1
  VOLUMETRIC BUDGET FOR ENTIRE MODEL AT END OF TIME STEP    1, STRESS PERIOD 191
  ------------------------------------------------------------------------------

     CUMULATIVE VOLUMES      L**3       RATES FOR THIS TIME STEP      L**3/T
     ------------------                 ------------------------

           IN:                                      IN:
           ---                                      ---
             STORAGE =        3434.4065               STORAGE =          39.1611
       CONSTANT HEAD =           0.0000         CONSTANT HEAD =           0.0000
       RIVER LEAKAGE =         244.5730         RIVER LEAKAGE =           3.5829
            RECHARGE =        2778.0000              RECHARGE =           0.0000

            TOTAL IN =        6456.9795              TOTAL IN =          42.7440

          OUT:                                     OUT:
          ----                                     ----
             STORAGE =        2358.4482               STORAGE =           0.0000
       CONSTANT HEAD =         629.9215         CONSTANT HEAD =           2.9939
       RIVER LEAKAGE =         721.8594         RIVER LEAKAGE =           0.0000
            RECHARGE =        2746.7500              RECHARGE =          39.7500

           TOTAL OUT =        6456.9790             TOTAL OUT =          42.7439

            IN - OUT =       4.8828E-04              IN - OUT =       1.0300E-04

 PERCENT DISCREPANCY =           0.00     PERCENT DISCREPANCY =           0.00






         TIME SUMMARY AT END OF TIME STEP    1 IN STRESS PERIOD  191
                    SECONDS     MINUTES      HOURS       DAYS        YEARS
                    -----------------------------------------------------------
   TIME STEP LENGTH  86400.      1440.0      24.000      1.0000     2.73785E-03
 STRESS PERIOD TIME  86400.      1440.0      24.000      1.0000     2.73785E-03
         TOTAL TIME 1.65024E+07 2.75040E+05  4584.0      191.00     0.52293    
1
1
                            STRESS PERIOD NO.  192, LENGTH =   1.000000    
                            -----------------------------------------------

                              NUMBER OF TIME STEPS =     1

                               MULTIPLIER FOR DELT =     1.000

                            INITIAL TIME STEP SIZE =   1.000000    

 REUSING NON-PARAMETER RIVER REACHES FROM LAST STRESS PERIOD

      2 RIVER REACHES

                 RECHARGE = -2.775000E-03
 
 SOLVING FOR HEAD 

 OUTPUT CONTROL FOR STRESS PERIOD  192   TIME STEP    1
    SAVE HEAD FOR ALL LAYERS

 HEAD WILL BE SAVED ON UNIT   51 AT END OF TIME STEP    1, STRESS PERIOD  192
1
  VOLUMETRIC BUDGET FOR ENTIRE MODEL AT END OF TIME STEP    1, STRESS PERIOD 192
  ------------------------------------------------------------------------------

     CUMULATIVE VOLUMES      L**3       RATES FOR THIS TIME STEP      L**3/T
     ------------------                 ------------------------

           IN:                                      IN:
           ---                                      ---
             STORAGE =        3460.7041               STORAGE =          26.2976
       CONSTANT HEAD =           0.0000         CONSTANT HEAD =           0.0000
       RIVER LEAKAGE =         249.0135         RIVER LEAKAGE =           4.4404
            RECHARGE =        2778.0000              RECHARGE =           0.0000

            TOTAL IN =        6487.7178              TOTAL IN =          30.7381

          OUT:                                     OUT:
          ----                                     ----
             STORAGE =        2358.4482               STORAGE =           0.0000
       CONSTANT HEAD =         632.9095         CONSTANT HEAD =           2.9880
       RIVER LEAKAGE =         721.8594         RIVER LEAKAGE =           0.0000
            RECHARGE =        2774.5000              RECHARGE =          27.7500

           TOTAL OUT =        6487.7173             TOTAL OUT =          30.7380

            IN - OUT =       4.8828E-04              IN - OUT =       2.6703E-05

 PERCENT DISCREPANCY =           0.00     PERCENT DISCREPANCY =           0.00






         TIME SUMMARY AT END OF TIME STEP    1 IN STRESS PERIOD  192
                    SECONDS     MINUTES      HOURS       DAYS        YEARS
                    -----------------------------------------------------------
   TIME STEP LENGTH  86400.      1440.0      24.000      1.0000     2.73785E-03
 STRESS PERIOD TIME  86400.      1440.0      24.000      1.0000     2.73785E-03
         TOTAL TIME 1.65888E+07 2.76480E+05  4608.0      192.00     0.52567    
1
1
                            STRESS PERIOD NO.  193, LENGTH =   1.000000    
                            -----------------------------------------------

                              NUMBER OF TIME STEPS =     1

                               MULTIPLIER FOR DELT =     1.000

                            INITIAL TIME STEP SIZE =   1.000000    

 REUSING NON-PARAMETER RIVER REACHES FROM LAST STRESS PERIOD

      2 RIVER REACHES

                 RECHARGE = -4.700000E-03
 
 SOLVING FOR HEAD 

 OUTPUT CONTROL FOR STRESS PERIOD  193   TIME STEP    1
    SAVE HEAD FOR ALL LAYERS

 HEAD WILL BE SAVED ON UNIT   51 AT END OF TIME STEP    1, STRESS PERIOD  193
1
  VOLUMETRIC BUDGET FOR ENTIRE MODEL AT END OF TIME STEP    1, STRESS PERIOD 193
  ------------------------------------------------------------------------------

     CUMULATIVE VOLUMES      L**3       RATES FOR THIS TIME STEP      L**3/T
     ------------------                 ------------------------

           IN:                                      IN:
           ---                                      ---
             STORAGE =        3504.9954               STORAGE =          44.2913
       CONSTANT HEAD =           0.0000         CONSTANT HEAD =           0.0000
       RIVER LEAKAGE =         254.7032         RIVER LEAKAGE =           5.6897
            RECHARGE =        2778.0000              RECHARGE =           0.0000

            TOTAL IN =        6537.6982              TOTAL IN =          49.9810

          OUT:                                     OUT:
          ----                                     ----
             STORAGE =        2358.4482               STORAGE =           0.0000
       CONSTANT HEAD =         635.8906         CONSTANT HEAD =           2.9811
       RIVER LEAKAGE =         721.8594         RIVER LEAKAGE =           0.0000
            RECHARGE =        2821.5000              RECHARGE =          47.0000

           TOTAL OUT =        6537.6982             TOTAL OUT =          49.9811

            IN - OUT =           0.0000              IN - OUT =      -7.2479E-05

 PERCENT DISCREPANCY =           0.00     PERCENT DISCREPANCY =          -0.00






         TIME SUMMARY AT END OF TIME STEP    1 IN STRESS PERIOD  193
                    SECONDS     MINUTES      HOURS       DAYS        YEARS
                    -----------------------------------------------------------
   TIME STEP LENGTH  86400.      1440.0      24.000      1.0000     2.73785E-03
 STRESS PERIOD TIME  86400.      1440.0      24.000      1.0000     2.73785E-03
         TOTAL TIME 1.66752E+07 2.77920E+05  4632.0      193.00     0.52841    
1
1
                            STRESS PERIOD NO.  194, LENGTH =   1.000000    
                            -----------------------------------------------

                              NUMBER OF TIME STEPS =     1

                               MULTIPLIER FOR DELT =     1.000

                            INITIAL TIME STEP SIZE =   1.000000    

 REUSING NON-PARAMETER RIVER REACHES FROM LAST STRESS PERIOD

      2 RIVER REACHES

                 RECHARGE = -3.400000E-03
 
 SOLVING FOR HEAD 

 OUTPUT CONTROL FOR STRESS PERIOD  194   TIME STEP    1
    SAVE HEAD FOR ALL LAYERS

 HEAD WILL BE SAVED ON UNIT   51 AT END OF TIME STEP    1, STRESS PERIOD  194
1
  VOLUMETRIC BUDGET FOR ENTIRE MODEL AT END OF TIME STEP    1, STRESS PERIOD 194
  ------------------------------------------------------------------------------

     CUMULATIVE VOLUMES      L**3       RATES FOR THIS TIME STEP      L**3/T
     ------------------                 ------------------------

           IN:                                      IN:
           ---                                      ---
             STORAGE =        3535.8706               STORAGE =          30.8752
       CONSTANT HEAD =           0.0000         CONSTANT HEAD =           0.0000
       RIVER LEAKAGE =         260.8019         RIVER LEAKAGE =           6.0987
            RECHARGE =        2778.0000              RECHARGE =           0.0000

            TOTAL IN =        6574.6729              TOTAL IN =          36.9739

          OUT:                                     OUT:
          ----                                     ----
             STORAGE =        2358.4482               STORAGE =           0.0000
       CONSTANT HEAD =         638.8647         CONSTANT HEAD =           2.9741
       RIVER LEAKAGE =         721.8594         RIVER LEAKAGE =           0.0000
            RECHARGE =        2855.5000              RECHARGE =          34.0000

           TOTAL OUT =        6574.6724             TOTAL OUT =          36.9741

            IN - OUT =       4.8828E-04              IN - OUT =      -1.1826E-04

 PERCENT DISCREPANCY =           0.00     PERCENT DISCREPANCY =          -0.00






         TIME SUMMARY AT END OF TIME STEP    1 IN STRESS PERIOD  194
                    SECONDS     MINUTES      HOURS       DAYS        YEARS
                    -----------------------------------------------------------
   TIME STEP LENGTH  86400.      1440.0      24.000      1.0000     2.73785E-03
 STRESS PERIOD TIME  86400.      1440.0      24.000      1.0000     2.73785E-03
         TOTAL TIME 1.67616E+07 2.79360E+05  4656.0      194.00     0.53114    
1
1
                            STRESS PERIOD NO.  195, LENGTH =   1.000000    
                            -----------------------------------------------

                              NUMBER OF TIME STEPS =     1

                               MULTIPLIER FOR DELT =     1.000

                            INITIAL TIME STEP SIZE =   1.000000    

 REUSING NON-PARAMETER RIVER REACHES FROM LAST STRESS PERIOD

      2 RIVER REACHES

                 RECHARGE =  1.400000E-03
 
 SOLVING FOR HEAD 

 OUTPUT CONTROL FOR STRESS PERIOD  195   TIME STEP    1
    SAVE HEAD FOR ALL LAYERS

 HEAD WILL BE SAVED ON UNIT   51 AT END OF TIME STEP    1, STRESS PERIOD  195
1
  VOLUMETRIC BUDGET FOR ENTIRE MODEL AT END OF TIME STEP    1, STRESS PERIOD 195
  ------------------------------------------------------------------------------

     CUMULATIVE VOLUMES      L**3       RATES FOR THIS TIME STEP      L**3/T
     ------------------                 ------------------------

           IN:                                      IN:
           ---                                      ---
             STORAGE =        3536.3335               STORAGE =           0.4628
       CONSTANT HEAD =           0.0000         CONSTANT HEAD =           0.0000
       RIVER LEAKAGE =         265.6483         RIVER LEAKAGE =           4.8464
            RECHARGE =        2792.0000              RECHARGE =          14.0000

            TOTAL IN =        6593.9819              TOTAL IN =          19.3092

          OUT:                                     OUT:
          ----                                     ----
             STORAGE =        2374.7888               STORAGE =          16.3407
       CONSTANT HEAD =         641.8331         CONSTANT HEAD =           2.9685
       RIVER LEAKAGE =         721.8594         RIVER LEAKAGE =           0.0000
            RECHARGE =        2855.5000              RECHARGE =           0.0000

           TOTAL OUT =        6593.9814             TOTAL OUT =          19.3091

            IN - OUT =       4.8828E-04              IN - OUT =       7.4387E-05

 PERCENT DISCREPANCY =           0.00     PERCENT DISCREPANCY =           0.00






         TIME SUMMARY AT END OF TIME STEP    1 IN STRESS PERIOD  195
                    SECONDS     MINUTES      HOURS       DAYS        YEARS
                    -----------------------------------------------------------
   TIME STEP LENGTH  86400.      1440.0      24.000      1.0000     2.73785E-03
 STRESS PERIOD TIME  86400.      1440.0      24.000      1.0000     2.73785E-03
         TOTAL TIME 1.68480E+07 2.80800E+05  4680.0      195.00     0.53388    
1
1
                            STRESS PERIOD NO.  196, LENGTH =   1.000000    
                            -----------------------------------------------

                              NUMBER OF TIME STEPS =     1

                               MULTIPLIER FOR DELT =     1.000

                            INITIAL TIME STEP SIZE =   1.000000    

 REUSING NON-PARAMETER RIVER REACHES FROM LAST STRESS PERIOD

      2 RIVER REACHES

                 RECHARGE =  2.500000E-02
 
 SOLVING FOR HEAD 

 OUTPUT CONTROL FOR STRESS PERIOD  196   TIME STEP    1
    SAVE HEAD FOR ALL LAYERS

 HEAD WILL BE SAVED ON UNIT   51 AT END OF TIME STEP    1, STRESS PERIOD  196
1
  VOLUMETRIC BUDGET FOR ENTIRE MODEL AT END OF TIME STEP    1, STRESS PERIOD 196
  ------------------------------------------------------------------------------

     CUMULATIVE VOLUMES      L**3       RATES FOR THIS TIME STEP      L**3/T
     ------------------                 ------------------------

           IN:                                      IN:
           ---                                      ---
             STORAGE =        3536.6382               STORAGE =           0.3047
       CONSTANT HEAD =           0.0000         CONSTANT HEAD =           0.0000
       RIVER LEAKAGE =         265.6483         RIVER LEAKAGE =           0.0000
            RECHARGE =        3042.0000              RECHARGE =         250.0000

            TOTAL IN =        6844.2866              TOTAL IN =         250.3047

          OUT:                                     OUT:
          ----                                     ----
             STORAGE =        2618.1118               STORAGE =         243.3231
       CONSTANT HEAD =         644.8047         CONSTANT HEAD =           2.9716
       RIVER LEAKAGE =         725.8694         RIVER LEAKAGE =           4.0100
            RECHARGE =        2855.5000              RECHARGE =           0.0000

           TOTAL OUT =        6844.2861             TOTAL OUT =         250.3047

            IN - OUT =       4.8828E-04              IN - OUT =       3.0518E-05

 PERCENT DISCREPANCY =           0.00     PERCENT DISCREPANCY =           0.00






         TIME SUMMARY AT END OF TIME STEP    1 IN STRESS PERIOD  196
                    SECONDS     MINUTES      HOURS       DAYS        YEARS
                    -----------------------------------------------------------
   TIME STEP LENGTH  86400.      1440.0      24.000      1.0000     2.73785E-03
 STRESS PERIOD TIME  86400.      1440.0      24.000      1.0000     2.73785E-03
         TOTAL TIME 1.69344E+07 2.82240E+05  4704.0      196.00     0.53662    
1
1
                            STRESS PERIOD NO.  197, LENGTH =   1.000000    
                            -----------------------------------------------

                              NUMBER OF TIME STEPS =     1

                               MULTIPLIER FOR DELT =     1.000

                            INITIAL TIME STEP SIZE =   1.000000    

 REUSING NON-PARAMETER RIVER REACHES FROM LAST STRESS PERIOD

      2 RIVER REACHES

                 RECHARGE = -2.900000E-03
 
 SOLVING FOR HEAD 

 OUTPUT CONTROL FOR STRESS PERIOD  197   TIME STEP    1
    SAVE HEAD FOR ALL LAYERS

 HEAD WILL BE SAVED ON UNIT   51 AT END OF TIME STEP    1, STRESS PERIOD  197
1
  VOLUMETRIC BUDGET FOR ENTIRE MODEL AT END OF TIME STEP    1, STRESS PERIOD 197
  ------------------------------------------------------------------------------

     CUMULATIVE VOLUMES      L**3       RATES FOR THIS TIME STEP      L**3/T
     ------------------                 ------------------------

           IN:                                      IN:
           ---                                      ---
             STORAGE =        3568.4663               STORAGE =          31.8280
       CONSTANT HEAD =           0.0000         CONSTANT HEAD =           0.0000
       RIVER LEAKAGE =         265.7891         RIVER LEAKAGE =           0.1408
            RECHARGE =        3042.0000              RECHARGE =           0.0000

            TOTAL IN =        6876.2554              TOTAL IN =          31.9688

          OUT:                                     OUT:
          ----                                     ----
             STORAGE =        2618.1118               STORAGE =           0.0000
       CONSTANT HEAD =         647.7737         CONSTANT HEAD =           2.9690
       RIVER LEAKAGE =         725.8694         RIVER LEAKAGE =           0.0000
            RECHARGE =        2884.5000              RECHARGE =          29.0000

           TOTAL OUT =        6876.2549             TOTAL OUT =          31.9690

            IN - OUT =       4.8828E-04              IN - OUT =      -1.8883E-04

 PERCENT DISCREPANCY =           0.00     PERCENT DISCREPANCY =          -0.00






         TIME SUMMARY AT END OF TIME STEP    1 IN STRESS PERIOD  197
                    SECONDS     MINUTES      HOURS       DAYS        YEARS
                    -----------------------------------------------------------
   TIME STEP LENGTH  86400.      1440.0      24.000      1.0000     2.73785E-03
 STRESS PERIOD TIME  86400.      1440.0      24.000      1.0000     2.73785E-03
         TOTAL TIME 1.70208E+07 2.83680E+05  4728.0      197.00     0.53936    
1
1
                            STRESS PERIOD NO.  198, LENGTH =   1.000000    
                            -----------------------------------------------

                              NUMBER OF TIME STEPS =     1

                               MULTIPLIER FOR DELT =     1.000

                            INITIAL TIME STEP SIZE =   1.000000    

 REUSING NON-PARAMETER RIVER REACHES FROM LAST STRESS PERIOD

      2 RIVER REACHES

                 RECHARGE =  1.530000E-02
 
 SOLVING FOR HEAD 

 OUTPUT CONTROL FOR STRESS PERIOD  198   TIME STEP    1
    SAVE HEAD FOR ALL LAYERS

 HEAD WILL BE SAVED ON UNIT   51 AT END OF TIME STEP    1, STRESS PERIOD  198
1
  VOLUMETRIC BUDGET FOR ENTIRE MODEL AT END OF TIME STEP    1, STRESS PERIOD 198
  ------------------------------------------------------------------------------

     CUMULATIVE VOLUMES      L**3       RATES FOR THIS TIME STEP      L**3/T
     ------------------                 ------------------------

           IN:                                      IN:
           ---                                      ---
             STORAGE =        3568.6953               STORAGE =           0.2289
       CONSTANT HEAD =           0.0000         CONSTANT HEAD =           0.0000
       RIVER LEAKAGE =         265.7891         RIVER LEAKAGE =           0.0000
            RECHARGE =        3195.0000              RECHARGE =         153.0000

            TOTAL IN =        7029.4844              TOTAL IN =         153.2289

          OUT:                                     OUT:
          ----                                     ----
             STORAGE =        2763.8965               STORAGE =         145.7848
       CONSTANT HEAD =         650.7451         CONSTANT HEAD =           2.9714
       RIVER LEAKAGE =         730.3421         RIVER LEAKAGE =           4.4726
            RECHARGE =        2884.5000              RECHARGE =           0.0000

           TOTAL OUT =        7029.4839             TOTAL OUT =         153.2288

            IN - OUT =       4.8828E-04              IN - OUT =       9.1553E-05

 PERCENT DISCREPANCY =           0.00     PERCENT DISCREPANCY =           0.00






         TIME SUMMARY AT END OF TIME STEP    1 IN STRESS PERIOD  198
                    SECONDS     MINUTES      HOURS       DAYS        YEARS
                    -----------------------------------------------------------
   TIME STEP LENGTH  86400.      1440.0      24.000      1.0000     2.73785E-03
 STRESS PERIOD TIME  86400.      1440.0      24.000      1.0000     2.73785E-03
         TOTAL TIME 1.71072E+07 2.85120E+05  4752.0      198.00     0.54209    
1
1
                            STRESS PERIOD NO.  199, LENGTH =   1.000000    
                            -----------------------------------------------

                              NUMBER OF TIME STEPS =     1

                               MULTIPLIER FOR DELT =     1.000

                            INITIAL TIME STEP SIZE =   1.000000    

 REUSING NON-PARAMETER RIVER REACHES FROM LAST STRESS PERIOD

      2 RIVER REACHES

                 RECHARGE = -2.675000E-03
 
 SOLVING FOR HEAD 

 OUTPUT CONTROL FOR STRESS PERIOD  199   TIME STEP    1
    SAVE HEAD FOR ALL LAYERS

 HEAD WILL BE SAVED ON UNIT   51 AT END OF TIME STEP    1, STRESS PERIOD  199
1
  VOLUMETRIC BUDGET FOR ENTIRE MODEL AT END OF TIME STEP    1, STRESS PERIOD 199
  ------------------------------------------------------------------------------

     CUMULATIVE VOLUMES      L**3       RATES FOR THIS TIME STEP      L**3/T
     ------------------                 ------------------------

           IN:                                      IN:
           ---                                      ---
             STORAGE =        3599.5173               STORAGE =          30.8221
       CONSTANT HEAD =           0.0000         CONSTANT HEAD =           0.0000
       RIVER LEAKAGE =         265.7891         RIVER LEAKAGE =           0.0000
            RECHARGE =        3195.0000              RECHARGE =           0.0000

            TOTAL IN =        7060.3066              TOTAL IN =          30.8221

          OUT:                                     OUT:
          ----                                     ----
             STORAGE =        2763.8965               STORAGE =           0.0000
       CONSTANT HEAD =         653.7147         CONSTANT HEAD =           2.9696
       RIVER LEAKAGE =         731.4444         RIVER LEAKAGE =           1.1023
            RECHARGE =        2911.2500              RECHARGE =          26.7500

           TOTAL OUT =        7060.3057             TOTAL OUT =          30.8219

            IN - OUT =       9.7656E-04              IN - OUT =       1.2016E-04

 PERCENT DISCREPANCY =           0.00     PERCENT DISCREPANCY =           0.00






         TIME SUMMARY AT END OF TIME STEP    1 IN STRESS PERIOD  199
                    SECONDS     MINUTES      HOURS       DAYS        YEARS
                    -----------------------------------------------------------
   TIME STEP LENGTH  86400.      1440.0      24.000      1.0000     2.73785E-03
 STRESS PERIOD TIME  86400.      1440.0      24.000      1.0000     2.73785E-03
         TOTAL TIME 1.71936E+07 2.86560E+05  4776.0      199.00     0.54483    
1
1
                            STRESS PERIOD NO.  200, LENGTH =   1.000000    
                            -----------------------------------------------

                              NUMBER OF TIME STEPS =     1

                               MULTIPLIER FOR DELT =     1.000

                            INITIAL TIME STEP SIZE =   1.000000    

 REUSING NON-PARAMETER RIVER REACHES FROM LAST STRESS PERIOD

      2 RIVER REACHES

                 RECHARGE = -5.000000E-04
 
 SOLVING FOR HEAD 

 OUTPUT CONTROL FOR STRESS PERIOD  200   TIME STEP    1
    SAVE HEAD FOR ALL LAYERS

 HEAD WILL BE SAVED ON UNIT   51 AT END OF TIME STEP    1, STRESS PERIOD  200
1
  VOLUMETRIC BUDGET FOR ENTIRE MODEL AT END OF TIME STEP    1, STRESS PERIOD 200
  ------------------------------------------------------------------------------

     CUMULATIVE VOLUMES      L**3       RATES FOR THIS TIME STEP      L**3/T
     ------------------                 ------------------------

           IN:                                      IN:
           ---                                      ---
             STORAGE =        3607.7510               STORAGE =           8.2337
       CONSTANT HEAD =           0.0000         CONSTANT HEAD =           0.0000
       RIVER LEAKAGE =         265.7891         RIVER LEAKAGE =           0.0000
            RECHARGE =        3195.0000              RECHARGE =           0.0000

            TOTAL IN =        7068.5400              TOTAL IN =           8.2337

          OUT:                                     OUT:
          ----                                     ----
             STORAGE =        2763.8965               STORAGE =           0.0000
       CONSTANT HEAD =         656.6821         CONSTANT HEAD =           2.9674
       RIVER LEAKAGE =         731.7106         RIVER LEAKAGE =           0.2662
            RECHARGE =        2916.2500              RECHARGE =           5.0000

           TOTAL OUT =        7068.5391             TOTAL OUT =           8.2336

            IN - OUT =       9.7656E-04              IN - OUT =       1.0204E-04

 PERCENT DISCREPANCY =           0.00     PERCENT DISCREPANCY =           0.00






         TIME SUMMARY AT END OF TIME STEP    1 IN STRESS PERIOD  200
                    SECONDS     MINUTES      HOURS       DAYS        YEARS
                    -----------------------------------------------------------
   TIME STEP LENGTH  86400.      1440.0      24.000      1.0000     2.73785E-03
 STRESS PERIOD TIME  86400.      1440.0      24.000      1.0000     2.73785E-03
         TOTAL TIME 1.72800E+07 2.88000E+05  4800.0      200.00     0.54757    
1
1
                            STRESS PERIOD NO.  201, LENGTH =   1.000000    
                            -----------------------------------------------

                              NUMBER OF TIME STEPS =     1

                               MULTIPLIER FOR DELT =     1.000

                            INITIAL TIME STEP SIZE =   1.000000    

 REUSING NON-PARAMETER RIVER REACHES FROM LAST STRESS PERIOD

      2 RIVER REACHES

                 RECHARGE = -5.075000E-03
 
 SOLVING FOR HEAD 

 OUTPUT CONTROL FOR STRESS PERIOD  201   TIME STEP    1
    SAVE HEAD FOR ALL LAYERS

 HEAD WILL BE SAVED ON UNIT   51 AT END OF TIME STEP    1, STRESS PERIOD  201
1
  VOLUMETRIC BUDGET FOR ENTIRE MODEL AT END OF TIME STEP    1, STRESS PERIOD 201
  ------------------------------------------------------------------------------

     CUMULATIVE VOLUMES      L**3       RATES FOR THIS TIME STEP      L**3/T
     ------------------                 ------------------------

           IN:                                      IN:
           ---                                      ---
             STORAGE =        3659.5786               STORAGE =          51.8275
       CONSTANT HEAD =           0.0000         CONSTANT HEAD =           0.0000
       RIVER LEAKAGE =         267.6746         RIVER LEAKAGE =           1.8855
            RECHARGE =        3195.0000              RECHARGE =           0.0000

            TOTAL IN =        7122.2529              TOTAL IN =          53.7130

          OUT:                                     OUT:
          ----                                     ----
             STORAGE =        2763.8965               STORAGE =           0.0000
       CONSTANT HEAD =         659.6454         CONSTANT HEAD =           2.9632
       RIVER LEAKAGE =         731.7106         RIVER LEAKAGE =           0.0000
            RECHARGE =        2967.0000              RECHARGE =          50.7500

           TOTAL OUT =        7122.2524             TOTAL OUT =          53.7132

            IN - OUT =       4.8828E-04              IN - OUT =      -2.0218E-04

 PERCENT DISCREPANCY =           0.00     PERCENT DISCREPANCY =          -0.00






         TIME SUMMARY AT END OF TIME STEP    1 IN STRESS PERIOD  201
                    SECONDS     MINUTES      HOURS       DAYS        YEARS
                    -----------------------------------------------------------
   TIME STEP LENGTH  86400.      1440.0      24.000      1.0000     2.73785E-03
 STRESS PERIOD TIME  86400.      1440.0      24.000      1.0000     2.73785E-03
         TOTAL TIME 1.73664E+07 2.89440E+05  4824.0      201.00     0.55031    
1
1
                            STRESS PERIOD NO.  202, LENGTH =   1.000000    
                            -----------------------------------------------

                              NUMBER OF TIME STEPS =     1

                               MULTIPLIER FOR DELT =     1.000

                            INITIAL TIME STEP SIZE =   1.000000    

 REUSING NON-PARAMETER RIVER REACHES FROM LAST STRESS PERIOD

      2 RIVER REACHES

                 RECHARGE = -4.800000E-03
 
 SOLVING FOR HEAD 

 OUTPUT CONTROL FOR STRESS PERIOD  202   TIME STEP    1
    SAVE HEAD FOR ALL LAYERS

 HEAD WILL BE SAVED ON UNIT   51 AT END OF TIME STEP    1, STRESS PERIOD  202
1
  VOLUMETRIC BUDGET FOR ENTIRE MODEL AT END OF TIME STEP    1, STRESS PERIOD 202
  ------------------------------------------------------------------------------

     CUMULATIVE VOLUMES      L**3       RATES FOR THIS TIME STEP      L**3/T
     ------------------                 ------------------------

           IN:                                      IN:
           ---                                      ---
             STORAGE =        3707.3604               STORAGE =          47.7817
       CONSTANT HEAD =           0.0000         CONSTANT HEAD =           0.0000
       RIVER LEAKAGE =         270.8510         RIVER LEAKAGE =           3.1764
            RECHARGE =        3195.0000              RECHARGE =           0.0000

            TOTAL IN =        7173.2114              TOTAL IN =          50.9581

          OUT:                                     OUT:
          ----                                     ----
             STORAGE =        2763.8965               STORAGE =           0.0000
       CONSTANT HEAD =         662.6036         CONSTANT HEAD =           2.9582
       RIVER LEAKAGE =         731.7106         RIVER LEAKAGE =           0.0000
            RECHARGE =        3015.0000              RECHARGE =          48.0000

           TOTAL OUT =        7173.2104             TOTAL OUT =          50.9582

            IN - OUT =       9.7656E-04              IN - OUT =      -1.4114E-04

 PERCENT DISCREPANCY =           0.00     PERCENT DISCREPANCY =          -0.00






         TIME SUMMARY AT END OF TIME STEP    1 IN STRESS PERIOD  202
                    SECONDS     MINUTES      HOURS       DAYS        YEARS
                    -----------------------------------------------------------
   TIME STEP LENGTH  86400.      1440.0      24.000      1.0000     2.73785E-03
 STRESS PERIOD TIME  86400.      1440.0      24.000      1.0000     2.73785E-03
         TOTAL TIME 1.74528E+07 2.90880E+05  4848.0      202.00     0.55305    
1
1
                            STRESS PERIOD NO.  203, LENGTH =   1.000000    
                            -----------------------------------------------

                              NUMBER OF TIME STEPS =     1

                               MULTIPLIER FOR DELT =     1.000

                            INITIAL TIME STEP SIZE =   1.000000    

 REUSING NON-PARAMETER RIVER REACHES FROM LAST STRESS PERIOD

      2 RIVER REACHES

                 RECHARGE = -3.700000E-03
 
 SOLVING FOR HEAD 

 OUTPUT CONTROL FOR STRESS PERIOD  203   TIME STEP    1
    SAVE HEAD FOR ALL LAYERS

 HEAD WILL BE SAVED ON UNIT   51 AT END OF TIME STEP    1, STRESS PERIOD  203
1
  VOLUMETRIC BUDGET FOR ENTIRE MODEL AT END OF TIME STEP    1, STRESS PERIOD 203
  ------------------------------------------------------------------------------

     CUMULATIVE VOLUMES      L**3       RATES FOR THIS TIME STEP      L**3/T
     ------------------                 ------------------------

           IN:                                      IN:
           ---                                      ---
             STORAGE =        3743.5144               STORAGE =          36.1539
       CONSTANT HEAD =           0.0000         CONSTANT HEAD =           0.0000
       RIVER LEAKAGE =         274.6501         RIVER LEAKAGE =           3.7992
            RECHARGE =        3195.0000              RECHARGE =           0.0000

            TOTAL IN =        7213.1646              TOTAL IN =          39.9531

          OUT:                                     OUT:
          ----                                     ----
             STORAGE =        2763.8965               STORAGE =           0.0000
       CONSTANT HEAD =         665.5566         CONSTANT HEAD =           2.9530
       RIVER LEAKAGE =         731.7106         RIVER LEAKAGE =           0.0000
            RECHARGE =        3052.0000              RECHARGE =          37.0000

           TOTAL OUT =        7213.1636             TOTAL OUT =          39.9529

            IN - OUT =       9.7656E-04              IN - OUT =       1.5259E-04

 PERCENT DISCREPANCY =           0.00     PERCENT DISCREPANCY =           0.00






         TIME SUMMARY AT END OF TIME STEP    1 IN STRESS PERIOD  203
                    SECONDS     MINUTES      HOURS       DAYS        YEARS
                    -----------------------------------------------------------
   TIME STEP LENGTH  86400.      1440.0      24.000      1.0000     2.73785E-03
 STRESS PERIOD TIME  86400.      1440.0      24.000      1.0000     2.73785E-03
         TOTAL TIME 1.75392E+07 2.92320E+05  4872.0      203.00     0.55578    
1
1
                            STRESS PERIOD NO.  204, LENGTH =   1.000000    
                            -----------------------------------------------

                              NUMBER OF TIME STEPS =     1

                               MULTIPLIER FOR DELT =     1.000

                            INITIAL TIME STEP SIZE =   1.000000    

 REUSING NON-PARAMETER RIVER REACHES FROM LAST STRESS PERIOD

      2 RIVER REACHES

                 RECHARGE =  1.850000E-02
 
 SOLVING FOR HEAD 

 OUTPUT CONTROL FOR STRESS PERIOD  204   TIME STEP    1
    SAVE HEAD FOR ALL LAYERS

 HEAD WILL BE SAVED ON UNIT   51 AT END OF TIME STEP    1, STRESS PERIOD  204
1
  VOLUMETRIC BUDGET FOR ENTIRE MODEL AT END OF TIME STEP    1, STRESS PERIOD 204
  ------------------------------------------------------------------------------

     CUMULATIVE VOLUMES      L**3       RATES FOR THIS TIME STEP      L**3/T
     ------------------                 ------------------------

           IN:                                      IN:
           ---                                      ---
             STORAGE =        3743.7207               STORAGE =           0.2063
       CONSTANT HEAD =           0.0000         CONSTANT HEAD =           0.0000
       RIVER LEAKAGE =         274.6501         RIVER LEAKAGE =           0.0000
            RECHARGE =        3380.0000              RECHARGE =         185.0000

            TOTAL IN =        7398.3711              TOTAL IN =         185.2063

          OUT:                                     OUT:
          ----                                     ----
             STORAGE =        2942.8245               STORAGE =         178.9279
       CONSTANT HEAD =         668.5117         CONSTANT HEAD =           2.9551
       RIVER LEAKAGE =         735.0339         RIVER LEAKAGE =           3.3233
            RECHARGE =        3052.0000              RECHARGE =           0.0000

           TOTAL OUT =        7398.3701             TOTAL OUT =         185.2062

            IN - OUT =       9.7656E-04              IN - OUT =       6.1035E-05

 PERCENT DISCREPANCY =           0.00     PERCENT DISCREPANCY =           0.00






         TIME SUMMARY AT END OF TIME STEP    1 IN STRESS PERIOD  204
                    SECONDS     MINUTES      HOURS       DAYS        YEARS
                    -----------------------------------------------------------
   TIME STEP LENGTH  86400.      1440.0      24.000      1.0000     2.73785E-03
 STRESS PERIOD TIME  86400.      1440.0      24.000      1.0000     2.73785E-03
         TOTAL TIME 1.76256E+07 2.93760E+05  4896.0      204.00     0.55852    
1
1
                            STRESS PERIOD NO.  205, LENGTH =   1.000000    
                            -----------------------------------------------

                              NUMBER OF TIME STEPS =     1

                               MULTIPLIER FOR DELT =     1.000

                            INITIAL TIME STEP SIZE =   1.000000    

 REUSING NON-PARAMETER RIVER REACHES FROM LAST STRESS PERIOD

      2 RIVER REACHES

                 RECHARGE = -4.800000E-03
 
 SOLVING FOR HEAD 

 OUTPUT CONTROL FOR STRESS PERIOD  205   TIME STEP    1
    SAVE HEAD FOR ALL LAYERS

 HEAD WILL BE SAVED ON UNIT   51 AT END OF TIME STEP    1, STRESS PERIOD  205
1
  VOLUMETRIC BUDGET FOR ENTIRE MODEL AT END OF TIME STEP    1, STRESS PERIOD 205
  ------------------------------------------------------------------------------

     CUMULATIVE VOLUMES      L**3       RATES FOR THIS TIME STEP      L**3/T
     ------------------                 ------------------------

           IN:                                      IN:
           ---                                      ---
             STORAGE =        3794.1448               STORAGE =          50.4241
       CONSTANT HEAD =           0.0000         CONSTANT HEAD =           0.0000
       RIVER LEAKAGE =         275.1780         RIVER LEAKAGE =           0.5279
            RECHARGE =        3380.0000              RECHARGE =           0.0000

            TOTAL IN =        7449.3228              TOTAL IN =          50.9520

          OUT:                                     OUT:
          ----                                     ----
             STORAGE =        2942.8245               STORAGE =           0.0000
       CONSTANT HEAD =         671.4638         CONSTANT HEAD =           2.9521
       RIVER LEAKAGE =         735.0339         RIVER LEAKAGE =           0.0000
            RECHARGE =        3100.0000              RECHARGE =          48.0000

           TOTAL OUT =        7449.3223             TOTAL OUT =          50.9521

            IN - OUT =       4.8828E-04              IN - OUT =      -1.6022E-04

 PERCENT DISCREPANCY =           0.00     PERCENT DISCREPANCY =          -0.00






         TIME SUMMARY AT END OF TIME STEP    1 IN STRESS PERIOD  205
                    SECONDS     MINUTES      HOURS       DAYS        YEARS
                    -----------------------------------------------------------
   TIME STEP LENGTH  86400.      1440.0      24.000      1.0000     2.73785E-03
 STRESS PERIOD TIME  86400.      1440.0      24.000      1.0000     2.73785E-03
         TOTAL TIME 1.77120E+07 2.95200E+05  4920.0      205.00     0.56126    
1
1
                            STRESS PERIOD NO.  206, LENGTH =   1.000000    
                            -----------------------------------------------

                              NUMBER OF TIME STEPS =     1

                               MULTIPLIER FOR DELT =     1.000

                            INITIAL TIME STEP SIZE =   1.000000    

 REUSING NON-PARAMETER RIVER REACHES FROM LAST STRESS PERIOD

      2 RIVER REACHES

                 RECHARGE =  1.000000E-04
 
 SOLVING FOR HEAD 

 OUTPUT CONTROL FOR STRESS PERIOD  206   TIME STEP    1
    SAVE HEAD FOR ALL LAYERS

 HEAD WILL BE SAVED ON UNIT   51 AT END OF TIME STEP    1, STRESS PERIOD  206
1
  VOLUMETRIC BUDGET FOR ENTIRE MODEL AT END OF TIME STEP    1, STRESS PERIOD 206
  ------------------------------------------------------------------------------

     CUMULATIVE VOLUMES      L**3       RATES FOR THIS TIME STEP      L**3/T
     ------------------                 ------------------------

           IN:                                      IN:
           ---                                      ---
             STORAGE =        3795.9170               STORAGE =           1.7721
       CONSTANT HEAD =           0.0000         CONSTANT HEAD =           0.0000
       RIVER LEAKAGE =         275.8167         RIVER LEAKAGE =           0.6386
            RECHARGE =        3381.0000              RECHARGE =           1.0000

            TOTAL IN =        7452.7334              TOTAL IN =           3.4107

          OUT:                                     OUT:
          ----                                     ----
             STORAGE =        2943.2854               STORAGE =           0.4611
       CONSTANT HEAD =         674.4134         CONSTANT HEAD =           2.9496
       RIVER LEAKAGE =         735.0339         RIVER LEAKAGE =           0.0000
            RECHARGE =        3100.0000              RECHARGE =           0.0000

           TOTAL OUT =        7452.7324             TOTAL OUT =           3.4106

            IN - OUT =       9.7656E-04              IN - OUT =       8.5831E-05

 PERCENT DISCREPANCY =           0.00     PERCENT DISCREPANCY =           0.00






         TIME SUMMARY AT END OF TIME STEP    1 IN STRESS PERIOD  206
                    SECONDS     MINUTES      HOURS       DAYS        YEARS
                    -----------------------------------------------------------
   TIME STEP LENGTH  86400.      1440.0      24.000      1.0000     2.73785E-03
 STRESS PERIOD TIME  86400.      1440.0      24.000      1.0000     2.73785E-03
         TOTAL TIME 1.77984E+07 2.96640E+05  4944.0      206.00     0.56400    
1
1
                            STRESS PERIOD NO.  207, LENGTH =   1.000000    
                            -----------------------------------------------

                              NUMBER OF TIME STEPS =     1

                               MULTIPLIER FOR DELT =     1.000

                            INITIAL TIME STEP SIZE =   1.000000    

 REUSING NON-PARAMETER RIVER REACHES FROM LAST STRESS PERIOD

      2 RIVER REACHES

                 RECHARGE =  8.800000E-03
 
 SOLVING FOR HEAD 

 OUTPUT CONTROL FOR STRESS PERIOD  207   TIME STEP    1
    SAVE HEAD FOR ALL LAYERS

 HEAD WILL BE SAVED ON UNIT   51 AT END OF TIME STEP    1, STRESS PERIOD  207
1
  VOLUMETRIC BUDGET FOR ENTIRE MODEL AT END OF TIME STEP    1, STRESS PERIOD 207
  ------------------------------------------------------------------------------

     CUMULATIVE VOLUMES      L**3       RATES FOR THIS TIME STEP      L**3/T
     ------------------                 ------------------------

           IN:                                      IN:
           ---                                      ---
             STORAGE =        3796.0959               STORAGE =           0.1790
       CONSTANT HEAD =           0.0000         CONSTANT HEAD =           0.0000
       RIVER LEAKAGE =         275.8167         RIVER LEAKAGE =           0.0000
            RECHARGE =        3469.0000              RECHARGE =          88.0000

            TOTAL IN =        7540.9126              TOTAL IN =          88.1790

          OUT:                                     OUT:
          ----                                     ----
             STORAGE =        3026.2791               STORAGE =          82.9937
       CONSTANT HEAD =         677.3633         CONSTANT HEAD =           2.9500
       RIVER LEAKAGE =         737.2691         RIVER LEAKAGE =           2.2352
            RECHARGE =        3100.0000              RECHARGE =           0.0000

           TOTAL OUT =        7540.9116             TOTAL OUT =          88.1788

            IN - OUT =       9.7656E-04              IN - OUT =       1.5259E-04

 PERCENT DISCREPANCY =           0.00     PERCENT DISCREPANCY =           0.00






         TIME SUMMARY AT END OF TIME STEP    1 IN STRESS PERIOD  207
                    SECONDS     MINUTES      HOURS       DAYS        YEARS
                    -----------------------------------------------------------
   TIME STEP LENGTH  86400.      1440.0      24.000      1.0000     2.73785E-03
 STRESS PERIOD TIME  86400.      1440.0      24.000      1.0000     2.73785E-03
         TOTAL TIME 1.78848E+07 2.98080E+05  4968.0      207.00     0.56674    
1
1
                            STRESS PERIOD NO.  208, LENGTH =   1.000000    
                            -----------------------------------------------

                              NUMBER OF TIME STEPS =     1

                               MULTIPLIER FOR DELT =     1.000

                            INITIAL TIME STEP SIZE =   1.000000    

 REUSING NON-PARAMETER RIVER REACHES FROM LAST STRESS PERIOD

      2 RIVER REACHES

                 RECHARGE = -1.100000E-03
 
 SOLVING FOR HEAD 

 OUTPUT CONTROL FOR STRESS PERIOD  208   TIME STEP    1
    SAVE HEAD FOR ALL LAYERS

 HEAD WILL BE SAVED ON UNIT   51 AT END OF TIME STEP    1, STRESS PERIOD  208
1
  VOLUMETRIC BUDGET FOR ENTIRE MODEL AT END OF TIME STEP    1, STRESS PERIOD 208
  ------------------------------------------------------------------------------

     CUMULATIVE VOLUMES      L**3       RATES FOR THIS TIME STEP      L**3/T
     ------------------                 ------------------------

           IN:                                      IN:
           ---                                      ---
             STORAGE =        3810.5906               STORAGE =          14.4947
       CONSTANT HEAD =           0.0000         CONSTANT HEAD =           0.0000
       RIVER LEAKAGE =         275.8167         RIVER LEAKAGE =           0.0000
            RECHARGE =        3469.0000              RECHARGE =           0.0000

            TOTAL IN =        7555.4072              TOTAL IN =          14.4947

          OUT:                                     OUT:
          ----                                     ----
             STORAGE =        3026.2791               STORAGE =           0.0000
       CONSTANT HEAD =         680.3115         CONSTANT HEAD =           2.9482
       RIVER LEAKAGE =         737.8155         RIVER LEAKAGE =           0.5464
            RECHARGE =        3111.0000              RECHARGE =          11.0000

           TOTAL OUT =        7555.4062             TOTAL OUT =          14.4946

            IN - OUT =       9.7656E-04              IN - OUT =       1.0777E-04

 PERCENT DISCREPANCY =           0.00     PERCENT DISCREPANCY =           0.00






         TIME SUMMARY AT END OF TIME STEP    1 IN STRESS PERIOD  208
                    SECONDS     MINUTES      HOURS       DAYS        YEARS
                    -----------------------------------------------------------
   TIME STEP LENGTH  86400.      1440.0      24.000      1.0000     2.73785E-03
 STRESS PERIOD TIME  86400.      1440.0      24.000      1.0000     2.73785E-03
         TOTAL TIME 1.79712E+07 2.99520E+05  4992.0      208.00     0.56947    
1
1
                            STRESS PERIOD NO.  209, LENGTH =   1.000000    
                            -----------------------------------------------

                              NUMBER OF TIME STEPS =     1

                               MULTIPLIER FOR DELT =     1.000

                            INITIAL TIME STEP SIZE =   1.000000    

 REUSING NON-PARAMETER RIVER REACHES FROM LAST STRESS PERIOD

      2 RIVER REACHES

                 RECHARGE =  6.200000E-03
 
 SOLVING FOR HEAD 

 OUTPUT CONTROL FOR STRESS PERIOD  209   TIME STEP    1
    SAVE HEAD FOR ALL LAYERS

 HEAD WILL BE SAVED ON UNIT   51 AT END OF TIME STEP    1, STRESS PERIOD  209
1
  VOLUMETRIC BUDGET FOR ENTIRE MODEL AT END OF TIME STEP    1, STRESS PERIOD 209
  ------------------------------------------------------------------------------

     CUMULATIVE VOLUMES      L**3       RATES FOR THIS TIME STEP      L**3/T
     ------------------                 ------------------------

           IN:                                      IN:
           ---                                      ---
             STORAGE =        3810.7393               STORAGE =           0.1488
       CONSTANT HEAD =           0.0000         CONSTANT HEAD =           0.0000
       RIVER LEAKAGE =         275.8167         RIVER LEAKAGE =           0.0000
            RECHARGE =        3531.0000              RECHARGE =          62.0000

            TOTAL IN =        7617.5557              TOTAL IN =          62.1488

          OUT:                                     OUT:
          ----                                     ----
             STORAGE =        3083.1711               STORAGE =          56.8921
       CONSTANT HEAD =         683.2599         CONSTANT HEAD =           2.9484
       RIVER LEAKAGE =         740.1236         RIVER LEAKAGE =           2.3081
            RECHARGE =        3111.0000              RECHARGE =           0.0000

           TOTAL OUT =        7617.5547             TOTAL OUT =          62.1486

            IN - OUT =       9.7656E-04              IN - OUT =       2.1362E-04

 PERCENT DISCREPANCY =           0.00     PERCENT DISCREPANCY =           0.00






         TIME SUMMARY AT END OF TIME STEP    1 IN STRESS PERIOD  209
                    SECONDS     MINUTES      HOURS       DAYS        YEARS
                    -----------------------------------------------------------
   TIME STEP LENGTH  86400.      1440.0      24.000      1.0000     2.73785E-03
 STRESS PERIOD TIME  86400.      1440.0      24.000      1.0000     2.73785E-03
         TOTAL TIME 1.80576E+07 3.00960E+05  5016.0      209.00     0.57221    
1
1
                            STRESS PERIOD NO.  210, LENGTH =   1.000000    
                            -----------------------------------------------

                              NUMBER OF TIME STEPS =     1

                               MULTIPLIER FOR DELT =     1.000

                            INITIAL TIME STEP SIZE =   1.000000    

 REUSING NON-PARAMETER RIVER REACHES FROM LAST STRESS PERIOD

      2 RIVER REACHES

                 RECHARGE = -3.900000E-03
 
 SOLVING FOR HEAD 

 OUTPUT CONTROL FOR STRESS PERIOD  210   TIME STEP    1
    SAVE HEAD FOR ALL LAYERS

 HEAD WILL BE SAVED ON UNIT   51 AT END OF TIME STEP    1, STRESS PERIOD  210
1
  VOLUMETRIC BUDGET FOR ENTIRE MODEL AT END OF TIME STEP    1, STRESS PERIOD 210
  ------------------------------------------------------------------------------

     CUMULATIVE VOLUMES      L**3       RATES FOR THIS TIME STEP      L**3/T
     ------------------                 ------------------------

           IN:                                      IN:
           ---                                      ---
             STORAGE =        3852.5459               STORAGE =          41.8067
       CONSTANT HEAD =           0.0000         CONSTANT HEAD =           0.0000
       RIVER LEAKAGE =         275.9559         RIVER LEAKAGE =           0.1392
            RECHARGE =        3531.0000              RECHARGE =           0.0000

            TOTAL IN =        7659.5020              TOTAL IN =          41.9459

          OUT:                                     OUT:
          ----                                     ----
             STORAGE =        3083.1711               STORAGE =           0.0000
       CONSTANT HEAD =         686.2058         CONSTANT HEAD =           2.9459
       RIVER LEAKAGE =         740.1236         RIVER LEAKAGE =           0.0000
            RECHARGE =        3150.0000              RECHARGE =          39.0000

           TOTAL OUT =        7659.5005             TOTAL OUT =          41.9459

            IN - OUT =       1.4648E-03              IN - OUT =       6.4850E-05

 PERCENT DISCREPANCY =           0.00     PERCENT DISCREPANCY =           0.00






         TIME SUMMARY AT END OF TIME STEP    1 IN STRESS PERIOD  210
                    SECONDS     MINUTES      HOURS       DAYS        YEARS
                    -----------------------------------------------------------
   TIME STEP LENGTH  86400.      1440.0      24.000      1.0000     2.73785E-03
 STRESS PERIOD TIME  86400.      1440.0      24.000      1.0000     2.73785E-03
         TOTAL TIME 1.81440E+07 3.02400E+05  5040.0      210.00     0.57495    
1
1
                            STRESS PERIOD NO.  211, LENGTH =   1.000000    
                            -----------------------------------------------

                              NUMBER OF TIME STEPS =     1

                               MULTIPLIER FOR DELT =     1.000

                            INITIAL TIME STEP SIZE =   1.000000    

 REUSING NON-PARAMETER RIVER REACHES FROM LAST STRESS PERIOD

      2 RIVER REACHES

                 RECHARGE = -2.975000E-03
 
 SOLVING FOR HEAD 

 OUTPUT CONTROL FOR STRESS PERIOD  211   TIME STEP    1
    SAVE HEAD FOR ALL LAYERS

 HEAD WILL BE SAVED ON UNIT   51 AT END OF TIME STEP    1, STRESS PERIOD  211
1
  VOLUMETRIC BUDGET FOR ENTIRE MODEL AT END OF TIME STEP    1, STRESS PERIOD 211
  ------------------------------------------------------------------------------

     CUMULATIVE VOLUMES      L**3       RATES FOR THIS TIME STEP      L**3/T
     ------------------                 ------------------------

           IN:                                      IN:
           ---                                      ---
             STORAGE =        3884.0764               STORAGE =          31.5306
       CONSTANT HEAD =           0.0000         CONSTANT HEAD =           0.0000
       RIVER LEAKAGE =         277.1179         RIVER LEAKAGE =           1.1620
            RECHARGE =        3531.0000              RECHARGE =           0.0000

            TOTAL IN =        7692.1943              TOTAL IN =          32.6926

          OUT:                                     OUT:
          ----                                     ----
             STORAGE =        3083.1711               STORAGE =           0.0000
       CONSTANT HEAD =         689.1486         CONSTANT HEAD =           2.9427
       RIVER LEAKAGE =         740.1236         RIVER LEAKAGE =           0.0000
            RECHARGE =        3179.7500              RECHARGE =          29.7500

           TOTAL OUT =        7692.1934             TOTAL OUT =          32.6927

            IN - OUT =       9.7656E-04              IN - OUT =      -1.3733E-04

 PERCENT DISCREPANCY =           0.00     PERCENT DISCREPANCY =          -0.00






         TIME SUMMARY AT END OF TIME STEP    1 IN STRESS PERIOD  211
                    SECONDS     MINUTES      HOURS       DAYS        YEARS
                    -----------------------------------------------------------
   TIME STEP LENGTH  86400.      1440.0      24.000      1.0000     2.73785E-03
 STRESS PERIOD TIME  86400.      1440.0      24.000      1.0000     2.73785E-03
         TOTAL TIME 1.82304E+07 3.03840E+05  5064.0      211.00     0.57769    
1
1
                            STRESS PERIOD NO.  212, LENGTH =   1.000000    
                            -----------------------------------------------

                              NUMBER OF TIME STEPS =     1

                               MULTIPLIER FOR DELT =     1.000

                            INITIAL TIME STEP SIZE =   1.000000    

 REUSING NON-PARAMETER RIVER REACHES FROM LAST STRESS PERIOD

      2 RIVER REACHES

                 RECHARGE = -9.000000E-04
 
 SOLVING FOR HEAD 

 OUTPUT CONTROL FOR STRESS PERIOD  212   TIME STEP    1
    SAVE HEAD FOR ALL LAYERS

 HEAD WILL BE SAVED ON UNIT   51 AT END OF TIME STEP    1, STRESS PERIOD  212
1
  VOLUMETRIC BUDGET FOR ENTIRE MODEL AT END OF TIME STEP    1, STRESS PERIOD 212
  ------------------------------------------------------------------------------

     CUMULATIVE VOLUMES      L**3       RATES FOR THIS TIME STEP      L**3/T
     ------------------                 ------------------------

           IN:                                      IN:
           ---                                      ---
             STORAGE =        3894.8088               STORAGE =          10.7325
       CONSTANT HEAD =           0.0000         CONSTANT HEAD =           0.0000
       RIVER LEAKAGE =         278.3250         RIVER LEAKAGE =           1.2072
            RECHARGE =        3531.0000              RECHARGE =           0.0000

            TOTAL IN =        7704.1338              TOTAL IN =          11.9397

          OUT:                                     OUT:
          ----                                     ----
             STORAGE =        3083.1711               STORAGE =           0.0000
       CONSTANT HEAD =         692.0884         CONSTANT HEAD =           2.9398
       RIVER LEAKAGE =         740.1236         RIVER LEAKAGE =           0.0000
            RECHARGE =        3188.7500              RECHARGE =           9.0000

           TOTAL OUT =        7704.1333             TOTAL OUT =          11.9398

            IN - OUT =       4.8828E-04              IN - OUT =      -1.2970E-04

 PERCENT DISCREPANCY =           0.00     PERCENT DISCREPANCY =          -0.00






         TIME SUMMARY AT END OF TIME STEP    1 IN STRESS PERIOD  212
                    SECONDS     MINUTES      HOURS       DAYS        YEARS
                    -----------------------------------------------------------
   TIME STEP LENGTH  86400.      1440.0      24.000      1.0000     2.73785E-03
 STRESS PERIOD TIME  86400.      1440.0      24.000      1.0000     2.73785E-03
         TOTAL TIME 1.83168E+07 3.05280E+05  5088.0      212.00     0.58042    
1
1
                            STRESS PERIOD NO.  213, LENGTH =   1.000000    
                            -----------------------------------------------

                              NUMBER OF TIME STEPS =     1

                               MULTIPLIER FOR DELT =     1.000

                            INITIAL TIME STEP SIZE =   1.000000    

 REUSING NON-PARAMETER RIVER REACHES FROM LAST STRESS PERIOD

      2 RIVER REACHES

                 RECHARGE =  6.200000E-03
 
 SOLVING FOR HEAD 

 OUTPUT CONTROL FOR STRESS PERIOD  213   TIME STEP    1
    SAVE HEAD FOR ALL LAYERS

 HEAD WILL BE SAVED ON UNIT   51 AT END OF TIME STEP    1, STRESS PERIOD  213
1
  VOLUMETRIC BUDGET FOR ENTIRE MODEL AT END OF TIME STEP    1, STRESS PERIOD 213
  ------------------------------------------------------------------------------

     CUMULATIVE VOLUMES      L**3       RATES FOR THIS TIME STEP      L**3/T
     ------------------                 ------------------------

           IN:                                      IN:
           ---                                      ---
             STORAGE =        3894.9651               STORAGE =           0.1562
       CONSTANT HEAD =           0.0000         CONSTANT HEAD =           0.0000
       RIVER LEAKAGE =         278.3250         RIVER LEAKAGE =           0.0000
            RECHARGE =        3593.0000              RECHARGE =          62.0000

            TOTAL IN =        7766.2900              TOTAL IN =          62.1562

          OUT:                                     OUT:
          ----                                     ----
             STORAGE =        3141.2944               STORAGE =          58.1233
       CONSTANT HEAD =         695.0277         CONSTANT HEAD =           2.9393
       RIVER LEAKAGE =         741.2169         RIVER LEAKAGE =           1.0933
            RECHARGE =        3188.7500              RECHARGE =           0.0000

           TOTAL OUT =        7766.2891             TOTAL OUT =          62.1560

            IN - OUT =       9.7656E-04              IN - OUT =       2.3651E-04

 PERCENT DISCREPANCY =           0.00     PERCENT DISCREPANCY =           0.00






         TIME SUMMARY AT END OF TIME STEP    1 IN STRESS PERIOD  213
                    SECONDS     MINUTES      HOURS       DAYS        YEARS
                    -----------------------------------------------------------
   TIME STEP LENGTH  86400.      1440.0      24.000      1.0000     2.73785E-03
 STRESS PERIOD TIME  86400.      1440.0      24.000      1.0000     2.73785E-03
         TOTAL TIME 1.84032E+07 3.06720E+05  5112.0      213.00     0.58316    
1
1
                            STRESS PERIOD NO.  214, LENGTH =   1.000000    
                            -----------------------------------------------

                              NUMBER OF TIME STEPS =     1

                               MULTIPLIER FOR DELT =     1.000

                            INITIAL TIME STEP SIZE =   1.000000    

 REUSING NON-PARAMETER RIVER REACHES FROM LAST STRESS PERIOD

      2 RIVER REACHES

                 RECHARGE = -1.700000E-03
 
 SOLVING FOR HEAD 

 OUTPUT CONTROL FOR STRESS PERIOD  214   TIME STEP    1
    SAVE HEAD FOR ALL LAYERS

 HEAD WILL BE SAVED ON UNIT   51 AT END OF TIME STEP    1, STRESS PERIOD  214
1
  VOLUMETRIC BUDGET FOR ENTIRE MODEL AT END OF TIME STEP    1, STRESS PERIOD 214
  ------------------------------------------------------------------------------

     CUMULATIVE VOLUMES      L**3       RATES FOR THIS TIME STEP      L**3/T
     ------------------                 ------------------------

           IN:                                      IN:
           ---                                      ---
             STORAGE =        3914.6013               STORAGE =          19.6363
       CONSTANT HEAD =           0.0000         CONSTANT HEAD =           0.0000
       RIVER LEAKAGE =         278.6260         RIVER LEAKAGE =           0.3010
            RECHARGE =        3593.0000              RECHARGE =           0.0000

            TOTAL IN =        7786.2275              TOTAL IN =          19.9373

          OUT:                                     OUT:
          ----                                     ----
             STORAGE =        3141.2944               STORAGE =           0.0000
       CONSTANT HEAD =         697.9648         CONSTANT HEAD =           2.9371
       RIVER LEAKAGE =         741.2169         RIVER LEAKAGE =           0.0000
            RECHARGE =        3205.7500              RECHARGE =          17.0000

           TOTAL OUT =        7786.2261             TOTAL OUT =          19.9371

            IN - OUT =       1.4648E-03              IN - OUT =       1.7929E-04

 PERCENT DISCREPANCY =           0.00     PERCENT DISCREPANCY =           0.00






         TIME SUMMARY AT END OF TIME STEP    1 IN STRESS PERIOD  214
                    SECONDS     MINUTES      HOURS       DAYS        YEARS
                    -----------------------------------------------------------
   TIME STEP LENGTH  86400.      1440.0      24.000      1.0000     2.73785E-03
 STRESS PERIOD TIME  86400.      1440.0      24.000      1.0000     2.73785E-03
         TOTAL TIME 1.84896E+07 3.08160E+05  5136.0      214.00     0.58590    
1
1
                            STRESS PERIOD NO.  215, LENGTH =   1.000000    
                            -----------------------------------------------

                              NUMBER OF TIME STEPS =     1

                               MULTIPLIER FOR DELT =     1.000

                            INITIAL TIME STEP SIZE =   1.000000    

 REUSING NON-PARAMETER RIVER REACHES FROM LAST STRESS PERIOD

      2 RIVER REACHES

                 RECHARGE = -3.175000E-03
 
 SOLVING FOR HEAD 

 OUTPUT CONTROL FOR STRESS PERIOD  215   TIME STEP    1
    SAVE HEAD FOR ALL LAYERS

 HEAD WILL BE SAVED ON UNIT   51 AT END OF TIME STEP    1, STRESS PERIOD  215
1
  VOLUMETRIC BUDGET FOR ENTIRE MODEL AT END OF TIME STEP    1, STRESS PERIOD 215
  ------------------------------------------------------------------------------

     CUMULATIVE VOLUMES      L**3       RATES FOR THIS TIME STEP      L**3/T
     ------------------                 ------------------------

           IN:                                      IN:
           ---                                      ---
             STORAGE =        3947.7791               STORAGE =          33.1777
       CONSTANT HEAD =           0.0000         CONSTANT HEAD =           0.0000
       RIVER LEAKAGE =         280.1324         RIVER LEAKAGE =           1.5064
            RECHARGE =        3593.0000              RECHARGE =           0.0000

            TOTAL IN =        7820.9116              TOTAL IN =          34.6840

          OUT:                                     OUT:
          ----                                     ----
             STORAGE =        3141.2944               STORAGE =           0.0000
       CONSTANT HEAD =         700.8987         CONSTANT HEAD =           2.9339
       RIVER LEAKAGE =         741.2169         RIVER LEAKAGE =           0.0000
            RECHARGE =        3237.5000              RECHARGE =          31.7500

           TOTAL OUT =        7820.9102             TOTAL OUT =          34.6839

            IN - OUT =       1.4648E-03              IN - OUT =       1.5259E-04

 PERCENT DISCREPANCY =           0.00     PERCENT DISCREPANCY =           0.00






         TIME SUMMARY AT END OF TIME STEP    1 IN STRESS PERIOD  215
                    SECONDS     MINUTES      HOURS       DAYS        YEARS
                    -----------------------------------------------------------
   TIME STEP LENGTH  86400.      1440.0      24.000      1.0000     2.73785E-03
 STRESS PERIOD TIME  86400.      1440.0      24.000      1.0000     2.73785E-03
         TOTAL TIME 1.85760E+07 3.09600E+05  5160.0      215.00     0.58864    
1
1
                            STRESS PERIOD NO.  216, LENGTH =   1.000000    
                            -----------------------------------------------

                              NUMBER OF TIME STEPS =     1

                               MULTIPLIER FOR DELT =     1.000

                            INITIAL TIME STEP SIZE =   1.000000    

 REUSING NON-PARAMETER RIVER REACHES FROM LAST STRESS PERIOD

      2 RIVER REACHES

                 RECHARGE = -2.500000E-03
 
 SOLVING FOR HEAD 

 OUTPUT CONTROL FOR STRESS PERIOD  216   TIME STEP    1
    SAVE HEAD FOR ALL LAYERS

 HEAD WILL BE SAVED ON UNIT   51 AT END OF TIME STEP    1, STRESS PERIOD  216
1
  VOLUMETRIC BUDGET FOR ENTIRE MODEL AT END OF TIME STEP    1, STRESS PERIOD 216
  ------------------------------------------------------------------------------

     CUMULATIVE VOLUMES      L**3       RATES FOR THIS TIME STEP      L**3/T
     ------------------                 ------------------------

           IN:                                      IN:
           ---                                      ---
             STORAGE =        3973.6399               STORAGE =          25.8608
       CONSTANT HEAD =           0.0000         CONSTANT HEAD =           0.0000
       RIVER LEAKAGE =         282.2021         RIVER LEAKAGE =           2.0696
            RECHARGE =        3593.0000              RECHARGE =           0.0000

            TOTAL IN =        7848.8418              TOTAL IN =          27.9304

          OUT:                                     OUT:
          ----                                     ----
             STORAGE =        3141.2944               STORAGE =           0.0000
       CONSTANT HEAD =         703.8290         CONSTANT HEAD =           2.9303
       RIVER LEAKAGE =         741.2169         RIVER LEAKAGE =           0.0000
            RECHARGE =        3262.5000              RECHARGE =          25.0000

           TOTAL OUT =        7848.8403             TOTAL OUT =          27.9303

            IN - OUT =       1.4648E-03              IN - OUT =       8.0109E-05

 PERCENT DISCREPANCY =           0.00     PERCENT DISCREPANCY =           0.00






         TIME SUMMARY AT END OF TIME STEP    1 IN STRESS PERIOD  216
                    SECONDS     MINUTES      HOURS       DAYS        YEARS
                    -----------------------------------------------------------
   TIME STEP LENGTH  86400.      1440.0      24.000      1.0000     2.73785E-03
 STRESS PERIOD TIME  86400.      1440.0      24.000      1.0000     2.73785E-03
         TOTAL TIME 1.86624E+07 3.11040E+05  5184.0      216.00     0.59138    
1
1
                            STRESS PERIOD NO.  217, LENGTH =   1.000000    
                            -----------------------------------------------

                              NUMBER OF TIME STEPS =     1

                               MULTIPLIER FOR DELT =     1.000

                            INITIAL TIME STEP SIZE =   1.000000    

 REUSING NON-PARAMETER RIVER REACHES FROM LAST STRESS PERIOD

      2 RIVER REACHES

                 RECHARGE =  8.000000E-04
 
 SOLVING FOR HEAD 

 OUTPUT CONTROL FOR STRESS PERIOD  217   TIME STEP    1
    SAVE HEAD FOR ALL LAYERS

 HEAD WILL BE SAVED ON UNIT   51 AT END OF TIME STEP    1, STRESS PERIOD  217
1
  VOLUMETRIC BUDGET FOR ENTIRE MODEL AT END OF TIME STEP    1, STRESS PERIOD 217
  ------------------------------------------------------------------------------

     CUMULATIVE VOLUMES      L**3       RATES FOR THIS TIME STEP      L**3/T
     ------------------                 ------------------------

           IN:                                      IN:
           ---                                      ---
             STORAGE =        3973.8315               STORAGE =           0.1917
       CONSTANT HEAD =           0.0000         CONSTANT HEAD =           0.0000
       RIVER LEAKAGE =         283.6035         RIVER LEAKAGE =           1.4015
            RECHARGE =        3601.0000              RECHARGE =           8.0000

            TOTAL IN =        7858.4351              TOTAL IN =           9.5931

          OUT:                                     OUT:
          ----                                     ----
             STORAGE =        3147.9597               STORAGE =           6.6653
       CONSTANT HEAD =         706.7567         CONSTANT HEAD =           2.9277
       RIVER LEAKAGE =         741.2169         RIVER LEAKAGE =           0.0000
            RECHARGE =        3262.5000              RECHARGE =           0.0000

           TOTAL OUT =        7858.4331             TOTAL OUT =           9.5930

            IN - OUT =       1.9531E-03              IN - OUT =       1.2779E-04

 PERCENT DISCREPANCY =           0.00     PERCENT DISCREPANCY =           0.00






         TIME SUMMARY AT END OF TIME STEP    1 IN STRESS PERIOD  217
                    SECONDS     MINUTES      HOURS       DAYS        YEARS
                    -----------------------------------------------------------
   TIME STEP LENGTH  86400.      1440.0      24.000      1.0000     2.73785E-03
 STRESS PERIOD TIME  86400.      1440.0      24.000      1.0000     2.73785E-03
         TOTAL TIME 1.87488E+07 3.12480E+05  5208.0      217.00     0.59411    
1
1
                            STRESS PERIOD NO.  218, LENGTH =   1.000000    
                            -----------------------------------------------

                              NUMBER OF TIME STEPS =     1

                               MULTIPLIER FOR DELT =     1.000

                            INITIAL TIME STEP SIZE =   1.000000    

 REUSING NON-PARAMETER RIVER REACHES FROM LAST STRESS PERIOD

      2 RIVER REACHES

                 RECHARGE = -1.200000E-03
 
 SOLVING FOR HEAD 

 OUTPUT CONTROL FOR STRESS PERIOD  218   TIME STEP    1
    SAVE HEAD FOR ALL LAYERS

 HEAD WILL BE SAVED ON UNIT   51 AT END OF TIME STEP    1, STRESS PERIOD  218
1
  VOLUMETRIC BUDGET FOR ENTIRE MODEL AT END OF TIME STEP    1, STRESS PERIOD 218
  ------------------------------------------------------------------------------

     CUMULATIVE VOLUMES      L**3       RATES FOR THIS TIME STEP      L**3/T
     ------------------                 ------------------------

           IN:                                      IN:
           ---                                      ---
             STORAGE =        3986.9590               STORAGE =          13.1275
       CONSTANT HEAD =           0.0000         CONSTANT HEAD =           0.0000
       RIVER LEAKAGE =         285.4006         RIVER LEAKAGE =           1.7971
            RECHARGE =        3601.0000              RECHARGE =           0.0000

            TOTAL IN =        7873.3594              TOTAL IN =          14.9246

          OUT:                                     OUT:
          ----                                     ----
             STORAGE =        3147.9597               STORAGE =           0.0000
       CONSTANT HEAD =         709.6813         CONSTANT HEAD =           2.9246
       RIVER LEAKAGE =         741.2169         RIVER LEAKAGE =           0.0000
            RECHARGE =        3274.5000              RECHARGE =          12.0000

           TOTAL OUT =        7873.3579             TOTAL OUT =          14.9246

            IN - OUT =       1.4648E-03              IN - OUT =       2.8610E-05

 PERCENT DISCREPANCY =           0.00     PERCENT DISCREPANCY =           0.00






         TIME SUMMARY AT END OF TIME STEP    1 IN STRESS PERIOD  218
                    SECONDS     MINUTES      HOURS       DAYS        YEARS
                    -----------------------------------------------------------
   TIME STEP LENGTH  86400.      1440.0      24.000      1.0000     2.73785E-03
 STRESS PERIOD TIME  86400.      1440.0      24.000      1.0000     2.73785E-03
         TOTAL TIME 1.88352E+07 3.13920E+05  5232.0      218.00     0.59685    
1
1
                            STRESS PERIOD NO.  219, LENGTH =   1.000000    
                            -----------------------------------------------

                              NUMBER OF TIME STEPS =     1

                               MULTIPLIER FOR DELT =     1.000

                            INITIAL TIME STEP SIZE =   1.000000    

 REUSING NON-PARAMETER RIVER REACHES FROM LAST STRESS PERIOD

      2 RIVER REACHES

                 RECHARGE = -2.800000E-03
 
 SOLVING FOR HEAD 

 OUTPUT CONTROL FOR STRESS PERIOD  219   TIME STEP    1
    SAVE HEAD FOR ALL LAYERS

 HEAD WILL BE SAVED ON UNIT   51 AT END OF TIME STEP    1, STRESS PERIOD  219
1
  VOLUMETRIC BUDGET FOR ENTIRE MODEL AT END OF TIME STEP    1, STRESS PERIOD 219
  ------------------------------------------------------------------------------

     CUMULATIVE VOLUMES      L**3       RATES FOR THIS TIME STEP      L**3/T
     ------------------                 ------------------------

           IN:                                      IN:
           ---                                      ---
             STORAGE =        4015.2795               STORAGE =          28.3207
       CONSTANT HEAD =           0.0000         CONSTANT HEAD =           0.0000
       RIVER LEAKAGE =         288.0007         RIVER LEAKAGE =           2.6001
            RECHARGE =        3601.0000              RECHARGE =           0.0000

            TOTAL IN =        7904.2803              TOTAL IN =          30.9207

          OUT:                                     OUT:
          ----                                     ----
             STORAGE =        3147.9597               STORAGE =           0.0000
       CONSTANT HEAD =         712.6022         CONSTANT HEAD =           2.9208
       RIVER LEAKAGE =         741.2169         RIVER LEAKAGE =           0.0000
            RECHARGE =        3302.5000              RECHARGE =          28.0000

           TOTAL OUT =        7904.2788             TOTAL OUT =          30.9208

            IN - OUT =       1.4648E-03              IN - OUT =      -6.2943E-05

 PERCENT DISCREPANCY =           0.00     PERCENT DISCREPANCY =          -0.00






         TIME SUMMARY AT END OF TIME STEP    1 IN STRESS PERIOD  219
                    SECONDS     MINUTES      HOURS       DAYS        YEARS
                    -----------------------------------------------------------
   TIME STEP LENGTH  86400.      1440.0      24.000      1.0000     2.73785E-03
 STRESS PERIOD TIME  86400.      1440.0      24.000      1.0000     2.73785E-03
         TOTAL TIME 1.89216E+07 3.15360E+05  5256.0      219.00     0.59959    
1
1
                            STRESS PERIOD NO.  220, LENGTH =   1.000000    
                            -----------------------------------------------

                              NUMBER OF TIME STEPS =     1

                               MULTIPLIER FOR DELT =     1.000

                            INITIAL TIME STEP SIZE =   1.000000    

 REUSING NON-PARAMETER RIVER REACHES FROM LAST STRESS PERIOD

      2 RIVER REACHES

                 RECHARGE = -5.000000E-04
 
 SOLVING FOR HEAD 

 OUTPUT CONTROL FOR STRESS PERIOD  220   TIME STEP    1
    SAVE HEAD FOR ALL LAYERS

 HEAD WILL BE SAVED ON UNIT   51 AT END OF TIME STEP    1, STRESS PERIOD  220
1
  VOLUMETRIC BUDGET FOR ENTIRE MODEL AT END OF TIME STEP    1, STRESS PERIOD 220
  ------------------------------------------------------------------------------

     CUMULATIVE VOLUMES      L**3       RATES FOR THIS TIME STEP      L**3/T
     ------------------                 ------------------------

           IN:                                      IN:
           ---                                      ---
             STORAGE =        4021.0190               STORAGE =           5.7395
       CONSTANT HEAD =           0.0000         CONSTANT HEAD =           0.0000
       RIVER LEAKAGE =         290.3479         RIVER LEAKAGE =           2.3472
            RECHARGE =        3601.0000              RECHARGE =           0.0000

            TOTAL IN =        7912.3667              TOTAL IN =           8.0867

          OUT:                                     OUT:
          ----                                     ----
             STORAGE =        3148.1289               STORAGE =           0.1691
       CONSTANT HEAD =         715.5197         CONSTANT HEAD =           2.9175
       RIVER LEAKAGE =         741.2169         RIVER LEAKAGE =           0.0000
            RECHARGE =        3307.5000              RECHARGE =           5.0000

           TOTAL OUT =        7912.3652             TOTAL OUT =           8.0866

            IN - OUT =       1.4648E-03              IN - OUT =       1.3447E-04

 PERCENT DISCREPANCY =           0.00     PERCENT DISCREPANCY =           0.00






         TIME SUMMARY AT END OF TIME STEP    1 IN STRESS PERIOD  220
                    SECONDS     MINUTES      HOURS       DAYS        YEARS
                    -----------------------------------------------------------
   TIME STEP LENGTH  86400.      1440.0      24.000      1.0000     2.73785E-03
 STRESS PERIOD TIME  86400.      1440.0      24.000      1.0000     2.73785E-03
         TOTAL TIME 1.90080E+07 3.16800E+05  5280.0      220.00     0.60233    
1
1
                            STRESS PERIOD NO.  221, LENGTH =   1.000000    
                            -----------------------------------------------

                              NUMBER OF TIME STEPS =     1

                               MULTIPLIER FOR DELT =     1.000

                            INITIAL TIME STEP SIZE =   1.000000    

 REUSING NON-PARAMETER RIVER REACHES FROM LAST STRESS PERIOD

      2 RIVER REACHES

                 RECHARGE = -3.100000E-03
 
 SOLVING FOR HEAD 

 OUTPUT CONTROL FOR STRESS PERIOD  221   TIME STEP    1
    SAVE HEAD FOR ALL LAYERS

 HEAD WILL BE SAVED ON UNIT   51 AT END OF TIME STEP    1, STRESS PERIOD  221
1
  VOLUMETRIC BUDGET FOR ENTIRE MODEL AT END OF TIME STEP    1, STRESS PERIOD 221
  ------------------------------------------------------------------------------

     CUMULATIVE VOLUMES      L**3       RATES FOR THIS TIME STEP      L**3/T
     ------------------                 ------------------------

           IN:                                      IN:
           ---                                      ---
             STORAGE =        4051.7358               STORAGE =          30.7169
       CONSTANT HEAD =           0.0000         CONSTANT HEAD =           0.0000
       RIVER LEAKAGE =         293.5444         RIVER LEAKAGE =           3.1966
            RECHARGE =        3601.0000              RECHARGE =           0.0000

            TOTAL IN =        7946.2803              TOTAL IN =          33.9135

          OUT:                                     OUT:
          ----                                     ----
             STORAGE =        3148.1289               STORAGE =           0.0000
       CONSTANT HEAD =         718.4330         CONSTANT HEAD =           2.9133
       RIVER LEAKAGE =         741.2169         RIVER LEAKAGE =           0.0000
            RECHARGE =        3338.5000              RECHARGE =          31.0000

           TOTAL OUT =        7946.2788             TOTAL OUT =          33.9133

            IN - OUT =       1.4648E-03              IN - OUT =       1.6403E-04

 PERCENT DISCREPANCY =           0.00     PERCENT DISCREPANCY =           0.00






         TIME SUMMARY AT END OF TIME STEP    1 IN STRESS PERIOD  221
                    SECONDS     MINUTES      HOURS       DAYS        YEARS
                    -----------------------------------------------------------
   TIME STEP LENGTH  86400.      1440.0      24.000      1.0000     2.73785E-03
 STRESS PERIOD TIME  86400.      1440.0      24.000      1.0000     2.73785E-03
         TOTAL TIME 1.90944E+07 3.18240E+05  5304.0      221.00     0.60507    
1
1
                            STRESS PERIOD NO.  222, LENGTH =   1.000000    
                            -----------------------------------------------

                              NUMBER OF TIME STEPS =     1

                               MULTIPLIER FOR DELT =     1.000

                            INITIAL TIME STEP SIZE =   1.000000    

 REUSING NON-PARAMETER RIVER REACHES FROM LAST STRESS PERIOD

      2 RIVER REACHES

                 RECHARGE = -4.000000E-03
 
 SOLVING FOR HEAD 

 OUTPUT CONTROL FOR STRESS PERIOD  222   TIME STEP    1
    SAVE HEAD FOR ALL LAYERS

 HEAD WILL BE SAVED ON UNIT   51 AT END OF TIME STEP    1, STRESS PERIOD  222
1
  VOLUMETRIC BUDGET FOR ENTIRE MODEL AT END OF TIME STEP    1, STRESS PERIOD 222
  ------------------------------------------------------------------------------

     CUMULATIVE VOLUMES      L**3       RATES FOR THIS TIME STEP      L**3/T
     ------------------                 ------------------------

           IN:                                      IN:
           ---                                      ---
             STORAGE =        4090.5750               STORAGE =          38.8392
       CONSTANT HEAD =           0.0000         CONSTANT HEAD =           0.0000
       RIVER LEAKAGE =         297.6138         RIVER LEAKAGE =           4.0693
            RECHARGE =        3601.0000              RECHARGE =           0.0000

            TOTAL IN =        7989.1885              TOTAL IN =          42.9085

          OUT:                                     OUT:
          ----                                     ----
             STORAGE =        3148.1289               STORAGE =           0.0000
       CONSTANT HEAD =         721.3415         CONSTANT HEAD =           2.9085
       RIVER LEAKAGE =         741.2169         RIVER LEAKAGE =           0.0000
            RECHARGE =        3378.5000              RECHARGE =          40.0000

           TOTAL OUT =        7989.1875             TOTAL OUT =          42.9085

            IN - OUT =       9.7656E-04              IN - OUT =       1.9073E-05

 PERCENT DISCREPANCY =           0.00     PERCENT DISCREPANCY =           0.00






         TIME SUMMARY AT END OF TIME STEP    1 IN STRESS PERIOD  222
                    SECONDS     MINUTES      HOURS       DAYS        YEARS
                    -----------------------------------------------------------
   TIME STEP LENGTH  86400.      1440.0      24.000      1.0000     2.73785E-03
 STRESS PERIOD TIME  86400.      1440.0      24.000      1.0000     2.73785E-03
         TOTAL TIME 1.91808E+07 3.19680E+05  5328.0      222.00     0.60780    
1
1
                            STRESS PERIOD NO.  223, LENGTH =   1.000000    
                            -----------------------------------------------

                              NUMBER OF TIME STEPS =     1

                               MULTIPLIER FOR DELT =     1.000

                            INITIAL TIME STEP SIZE =   1.000000    

 REUSING NON-PARAMETER RIVER REACHES FROM LAST STRESS PERIOD

      2 RIVER REACHES

                 RECHARGE =  5.600000E-03
 
 SOLVING FOR HEAD 

 OUTPUT CONTROL FOR STRESS PERIOD  223   TIME STEP    1
    SAVE HEAD FOR ALL LAYERS

 HEAD WILL BE SAVED ON UNIT   51 AT END OF TIME STEP    1, STRESS PERIOD  223
1
  VOLUMETRIC BUDGET FOR ENTIRE MODEL AT END OF TIME STEP    1, STRESS PERIOD 223
  ------------------------------------------------------------------------------

     CUMULATIVE VOLUMES      L**3       RATES FOR THIS TIME STEP      L**3/T
     ------------------                 ------------------------

           IN:                                      IN:
           ---                                      ---
             STORAGE =        4090.7852               STORAGE =           0.2103
       CONSTANT HEAD =           0.0000         CONSTANT HEAD =           0.0000
       RIVER LEAKAGE =         299.0000         RIVER LEAKAGE =           1.3862
            RECHARGE =        3657.0000              RECHARGE =          56.0000

            TOTAL IN =        8046.7852              TOTAL IN =          57.5965

          OUT:                                     OUT:
          ----                                     ----
             STORAGE =        3202.8191               STORAGE =          54.6901
       CONSTANT HEAD =         724.2481         CONSTANT HEAD =           2.9066
       RIVER LEAKAGE =         741.2169         RIVER LEAKAGE =           0.0000
            RECHARGE =        3378.5000              RECHARGE =           0.0000

           TOTAL OUT =        8046.7842             TOTAL OUT =          57.5967

            IN - OUT =       9.7656E-04              IN - OUT =      -2.2888E-04

 PERCENT DISCREPANCY =           0.00     PERCENT DISCREPANCY =          -0.00






         TIME SUMMARY AT END OF TIME STEP    1 IN STRESS PERIOD  223
                    SECONDS     MINUTES      HOURS       DAYS        YEARS
                    -----------------------------------------------------------
   TIME STEP LENGTH  86400.      1440.0      24.000      1.0000     2.73785E-03
 STRESS PERIOD TIME  86400.      1440.0      24.000      1.0000     2.73785E-03
         TOTAL TIME 1.92672E+07 3.21120E+05  5352.0      223.00     0.61054    
1
1
                            STRESS PERIOD NO.  224, LENGTH =   1.000000    
                            -----------------------------------------------

                              NUMBER OF TIME STEPS =     1

                               MULTIPLIER FOR DELT =     1.000

                            INITIAL TIME STEP SIZE =   1.000000    

 REUSING NON-PARAMETER RIVER REACHES FROM LAST STRESS PERIOD

      2 RIVER REACHES

                 RECHARGE = -2.975000E-03
 
 SOLVING FOR HEAD 

 OUTPUT CONTROL FOR STRESS PERIOD  224   TIME STEP    1
    SAVE HEAD FOR ALL LAYERS

 HEAD WILL BE SAVED ON UNIT   51 AT END OF TIME STEP    1, STRESS PERIOD  224
1
  VOLUMETRIC BUDGET FOR ENTIRE MODEL AT END OF TIME STEP    1, STRESS PERIOD 224
  ------------------------------------------------------------------------------

     CUMULATIVE VOLUMES      L**3       RATES FOR THIS TIME STEP      L**3/T
     ------------------                 ------------------------

           IN:                                      IN:
           ---                                      ---
             STORAGE =        4120.5981               STORAGE =          29.8132
       CONSTANT HEAD =           0.0000         CONSTANT HEAD =           0.0000
       RIVER LEAKAGE =         301.8396         RIVER LEAKAGE =           2.8396
            RECHARGE =        3657.0000              RECHARGE =           0.0000

            TOTAL IN =        8079.4375              TOTAL IN =          32.6528

          OUT:                                     OUT:
          ----                                     ----
             STORAGE =        3202.8191               STORAGE =           0.0000
       CONSTANT HEAD =         727.1510         CONSTANT HEAD =           2.9029
       RIVER LEAKAGE =         741.2169         RIVER LEAKAGE =           0.0000
            RECHARGE =        3408.2500              RECHARGE =          29.7500

           TOTAL OUT =        8079.4370             TOTAL OUT =          32.6529

            IN - OUT =       4.8828E-04              IN - OUT =      -9.5367E-05

 PERCENT DISCREPANCY =           0.00     PERCENT DISCREPANCY =          -0.00






         TIME SUMMARY AT END OF TIME STEP    1 IN STRESS PERIOD  224
                    SECONDS     MINUTES      HOURS       DAYS        YEARS
                    -----------------------------------------------------------
   TIME STEP LENGTH  86400.      1440.0      24.000      1.0000     2.73785E-03
 STRESS PERIOD TIME  86400.      1440.0      24.000      1.0000     2.73785E-03
         TOTAL TIME 1.93536E+07 3.22560E+05  5376.0      224.00     0.61328    
1
1
                            STRESS PERIOD NO.  225, LENGTH =   1.000000    
                            -----------------------------------------------

                              NUMBER OF TIME STEPS =     1

                               MULTIPLIER FOR DELT =     1.000

                            INITIAL TIME STEP SIZE =   1.000000    

 REUSING NON-PARAMETER RIVER REACHES FROM LAST STRESS PERIOD

      2 RIVER REACHES

                 RECHARGE =  8.000000E-04
 
 SOLVING FOR HEAD 

 OUTPUT CONTROL FOR STRESS PERIOD  225   TIME STEP    1
    SAVE HEAD FOR ALL LAYERS

 HEAD WILL BE SAVED ON UNIT   51 AT END OF TIME STEP    1, STRESS PERIOD  225
1
  VOLUMETRIC BUDGET FOR ENTIRE MODEL AT END OF TIME STEP    1, STRESS PERIOD 225
  ------------------------------------------------------------------------------

     CUMULATIVE VOLUMES      L**3       RATES FOR THIS TIME STEP      L**3/T
     ------------------                 ------------------------

           IN:                                      IN:
           ---                                      ---
             STORAGE =        4120.8159               STORAGE =           0.2180
       CONSTANT HEAD =           0.0000         CONSTANT HEAD =           0.0000
       RIVER LEAKAGE =         304.1008         RIVER LEAKAGE =           2.2612
            RECHARGE =        3665.0000              RECHARGE =           8.0000

            TOTAL IN =        8089.9165              TOTAL IN =          10.4792

          OUT:                                     OUT:
          ----                                     ----
             STORAGE =        3210.3982               STORAGE =           7.5791
       CONSTANT HEAD =         730.0510         CONSTANT HEAD =           2.9000
       RIVER LEAKAGE =         741.2169         RIVER LEAKAGE =           0.0000
            RECHARGE =        3408.2500              RECHARGE =           0.0000

           TOTAL OUT =        8089.9160             TOTAL OUT =          10.4791

            IN - OUT =       4.8828E-04              IN - OUT =       1.4591E-04

 PERCENT DISCREPANCY =           0.00     PERCENT DISCREPANCY =           0.00






         TIME SUMMARY AT END OF TIME STEP    1 IN STRESS PERIOD  225
                    SECONDS     MINUTES      HOURS       DAYS        YEARS
                    -----------------------------------------------------------
   TIME STEP LENGTH  86400.      1440.0      24.000      1.0000     2.73785E-03
 STRESS PERIOD TIME  86400.      1440.0      24.000      1.0000     2.73785E-03
         TOTAL TIME 1.94400E+07 3.24000E+05  5400.0      225.00     0.61602    
1
1
                            STRESS PERIOD NO.  226, LENGTH =   1.000000    
                            -----------------------------------------------

                              NUMBER OF TIME STEPS =     1

                               MULTIPLIER FOR DELT =     1.000

                            INITIAL TIME STEP SIZE =   1.000000    

 REUSING NON-PARAMETER RIVER REACHES FROM LAST STRESS PERIOD

      2 RIVER REACHES

                 RECHARGE = -2.600000E-03
 
 SOLVING FOR HEAD 

 OUTPUT CONTROL FOR STRESS PERIOD  226   TIME STEP    1
    SAVE HEAD FOR ALL LAYERS

 HEAD WILL BE SAVED ON UNIT   51 AT END OF TIME STEP    1, STRESS PERIOD  226
1
  VOLUMETRIC BUDGET FOR ENTIRE MODEL AT END OF TIME STEP    1, STRESS PERIOD 226
  ------------------------------------------------------------------------------

     CUMULATIVE VOLUMES      L**3       RATES FOR THIS TIME STEP      L**3/T
     ------------------                 ------------------------

           IN:                                      IN:
           ---                                      ---
             STORAGE =        4146.5630               STORAGE =          25.7471
       CONSTANT HEAD =           0.0000         CONSTANT HEAD =           0.0000
       RIVER LEAKAGE =         307.2499         RIVER LEAKAGE =           3.1491
            RECHARGE =        3665.0000              RECHARGE =           0.0000

            TOTAL IN =        8118.8130              TOTAL IN =          28.8962

          OUT:                                     OUT:
          ----                                     ----
             STORAGE =        3210.3982               STORAGE =           0.0000
       CONSTANT HEAD =         732.9471         CONSTANT HEAD =           2.8961
       RIVER LEAKAGE =         741.2169         RIVER LEAKAGE =           0.0000
            RECHARGE =        3434.2500              RECHARGE =          26.0000

           TOTAL OUT =        8118.8120             TOTAL OUT =          28.8961

            IN - OUT =       9.7656E-04              IN - OUT =       6.4850E-05

 PERCENT DISCREPANCY =           0.00     PERCENT DISCREPANCY =           0.00






         TIME SUMMARY AT END OF TIME STEP    1 IN STRESS PERIOD  226
                    SECONDS     MINUTES      HOURS       DAYS        YEARS
                    -----------------------------------------------------------
   TIME STEP LENGTH  86400.      1440.0      24.000      1.0000     2.73785E-03
 STRESS PERIOD TIME  86400.      1440.0      24.000      1.0000     2.73785E-03
         TOTAL TIME 1.95264E+07 3.25440E+05  5424.0      226.00     0.61875    
1
1
                            STRESS PERIOD NO.  227, LENGTH =   1.000000    
                            -----------------------------------------------

                              NUMBER OF TIME STEPS =     1

                               MULTIPLIER FOR DELT =     1.000

                            INITIAL TIME STEP SIZE =   1.000000    

 REUSING NON-PARAMETER RIVER REACHES FROM LAST STRESS PERIOD

      2 RIVER REACHES

                 RECHARGE =  2.600000E-03
 
 SOLVING FOR HEAD 

 OUTPUT CONTROL FOR STRESS PERIOD  227   TIME STEP    1
    SAVE HEAD FOR ALL LAYERS

 HEAD WILL BE SAVED ON UNIT   51 AT END OF TIME STEP    1, STRESS PERIOD  227
1
  VOLUMETRIC BUDGET FOR ENTIRE MODEL AT END OF TIME STEP    1, STRESS PERIOD 227
  ------------------------------------------------------------------------------

     CUMULATIVE VOLUMES      L**3       RATES FOR THIS TIME STEP      L**3/T
     ------------------                 ------------------------

           IN:                                      IN:
           ---                                      ---
             STORAGE =        4146.7744               STORAGE =           0.2117
       CONSTANT HEAD =           0.0000         CONSTANT HEAD =           0.0000
       RIVER LEAKAGE =         309.1225         RIVER LEAKAGE =           1.8726
            RECHARGE =        3691.0000              RECHARGE =          26.0000

            TOTAL IN =        8146.8970              TOTAL IN =          28.0842

          OUT:                                     OUT:
          ----                                     ----
             STORAGE =        3235.5889               STORAGE =          25.1906
       CONSTANT HEAD =         735.8408         CONSTANT HEAD =           2.8937
       RIVER LEAKAGE =         741.2169         RIVER LEAKAGE =           0.0000
            RECHARGE =        3434.2500              RECHARGE =           0.0000

           TOTAL OUT =        8146.8965             TOTAL OUT =          28.0843

            IN - OUT =       4.8828E-04              IN - OUT =      -3.8147E-05

 PERCENT DISCREPANCY =           0.00     PERCENT DISCREPANCY =          -0.00






         TIME SUMMARY AT END OF TIME STEP    1 IN STRESS PERIOD  227
                    SECONDS     MINUTES      HOURS       DAYS        YEARS
                    -----------------------------------------------------------
   TIME STEP LENGTH  86400.      1440.0      24.000      1.0000     2.73785E-03
 STRESS PERIOD TIME  86400.      1440.0      24.000      1.0000     2.73785E-03
         TOTAL TIME 1.96128E+07 3.26880E+05  5448.0      227.00     0.62149    
1
1
                            STRESS PERIOD NO.  228, LENGTH =   1.000000    
                            -----------------------------------------------

                              NUMBER OF TIME STEPS =     1

                               MULTIPLIER FOR DELT =     1.000

                            INITIAL TIME STEP SIZE =   1.000000    

 REUSING NON-PARAMETER RIVER REACHES FROM LAST STRESS PERIOD

      2 RIVER REACHES

                 RECHARGE = -3.200000E-03
 
 SOLVING FOR HEAD 

 OUTPUT CONTROL FOR STRESS PERIOD  228   TIME STEP    1
    SAVE HEAD FOR ALL LAYERS

 HEAD WILL BE SAVED ON UNIT   51 AT END OF TIME STEP    1, STRESS PERIOD  228
1
  VOLUMETRIC BUDGET FOR ENTIRE MODEL AT END OF TIME STEP    1, STRESS PERIOD 228
  ------------------------------------------------------------------------------

     CUMULATIVE VOLUMES      L**3       RATES FOR THIS TIME STEP      L**3/T
     ------------------                 ------------------------

           IN:                                      IN:
           ---                                      ---
             STORAGE =        4178.4941               STORAGE =          31.7196
       CONSTANT HEAD =           0.0000         CONSTANT HEAD =           0.0000
       RIVER LEAKAGE =         312.2928         RIVER LEAKAGE =           3.1703
            RECHARGE =        3691.0000              RECHARGE =           0.0000

            TOTAL IN =        8181.7871              TOTAL IN =          34.8899

          OUT:                                     OUT:
          ----                                     ----
             STORAGE =        3235.5889               STORAGE =           0.0000
       CONSTANT HEAD =         738.7307         CONSTANT HEAD =           2.8899
       RIVER LEAKAGE =         741.2169         RIVER LEAKAGE =           0.0000
            RECHARGE =        3466.2500              RECHARGE =          32.0000

           TOTAL OUT =        8181.7866             TOTAL OUT =          34.8899

            IN - OUT =       4.8828E-04              IN - OUT =       6.8665E-05

 PERCENT DISCREPANCY =           0.00     PERCENT DISCREPANCY =           0.00






         TIME SUMMARY AT END OF TIME STEP    1 IN STRESS PERIOD  228
                    SECONDS     MINUTES      HOURS       DAYS        YEARS
                    -----------------------------------------------------------
   TIME STEP LENGTH  86400.      1440.0      24.000      1.0000     2.73785E-03
 STRESS PERIOD TIME  86400.      1440.0      24.000      1.0000     2.73785E-03
         TOTAL TIME 1.96992E+07 3.28320E+05  5472.0      228.00     0.62423    
1
1
                            STRESS PERIOD NO.  229, LENGTH =   1.000000    
                            -----------------------------------------------

                              NUMBER OF TIME STEPS =     1

                               MULTIPLIER FOR DELT =     1.000

                            INITIAL TIME STEP SIZE =   1.000000    

 REUSING NON-PARAMETER RIVER REACHES FROM LAST STRESS PERIOD

      2 RIVER REACHES

                 RECHARGE = -3.700000E-03
 
 SOLVING FOR HEAD 

 OUTPUT CONTROL FOR STRESS PERIOD  229   TIME STEP    1
    SAVE HEAD FOR ALL LAYERS

 HEAD WILL BE SAVED ON UNIT   51 AT END OF TIME STEP    1, STRESS PERIOD  229
1
  VOLUMETRIC BUDGET FOR ENTIRE MODEL AT END OF TIME STEP    1, STRESS PERIOD 229
  ------------------------------------------------------------------------------

     CUMULATIVE VOLUMES      L**3       RATES FOR THIS TIME STEP      L**3/T
     ------------------                 ------------------------

           IN:                                      IN:
           ---                                      ---
             STORAGE =        4214.3110               STORAGE =          35.8169
       CONSTANT HEAD =           0.0000         CONSTANT HEAD =           0.0000
       RIVER LEAKAGE =         316.3614         RIVER LEAKAGE =           4.0686
            RECHARGE =        3691.0000              RECHARGE =           0.0000

            TOTAL IN =        8221.6719              TOTAL IN =          39.8855

          OUT:                                     OUT:
          ----                                     ----
             STORAGE =        3235.5889               STORAGE =           0.0000
       CONSTANT HEAD =         741.6160         CONSTANT HEAD =           2.8853
       RIVER LEAKAGE =         741.2169         RIVER LEAKAGE =           0.0000
            RECHARGE =        3503.2500              RECHARGE =          37.0000

           TOTAL OUT =        8221.6719             TOTAL OUT =          39.8853

            IN - OUT =           0.0000              IN - OUT =       1.1444E-04

 PERCENT DISCREPANCY =           0.00     PERCENT DISCREPANCY =           0.00






         TIME SUMMARY AT END OF TIME STEP    1 IN STRESS PERIOD  229
                    SECONDS     MINUTES      HOURS       DAYS        YEARS
                    -----------------------------------------------------------
   TIME STEP LENGTH  86400.      1440.0      24.000      1.0000     2.73785E-03
 STRESS PERIOD TIME  86400.      1440.0      24.000      1.0000     2.73785E-03
         TOTAL TIME 1.97856E+07 3.29760E+05  5496.0      229.00     0.62697    
1
1
                            STRESS PERIOD NO.  230, LENGTH =   1.000000    
                            -----------------------------------------------

                              NUMBER OF TIME STEPS =     1

                               MULTIPLIER FOR DELT =     1.000

                            INITIAL TIME STEP SIZE =   1.000000    

 REUSING NON-PARAMETER RIVER REACHES FROM LAST STRESS PERIOD

      2 RIVER REACHES

                 RECHARGE =  2.000000E-04
 
 SOLVING FOR HEAD 

 OUTPUT CONTROL FOR STRESS PERIOD  230   TIME STEP    1
    SAVE HEAD FOR ALL LAYERS

 HEAD WILL BE SAVED ON UNIT   51 AT END OF TIME STEP    1, STRESS PERIOD  230
1
  VOLUMETRIC BUDGET FOR ENTIRE MODEL AT END OF TIME STEP    1, STRESS PERIOD 230
  ------------------------------------------------------------------------------

     CUMULATIVE VOLUMES      L**3       RATES FOR THIS TIME STEP      L**3/T
     ------------------                 ------------------------

           IN:                                      IN:
           ---                                      ---
             STORAGE =        4214.5532               STORAGE =           0.2421
       CONSTANT HEAD =           0.0000         CONSTANT HEAD =           0.0000
       RIVER LEAKAGE =         319.7238         RIVER LEAKAGE =           3.3624
            RECHARGE =        3693.0000              RECHARGE =           2.0000

            TOTAL IN =        8227.2773              TOTAL IN =           5.6045

          OUT:                                     OUT:
          ----                                     ----
             STORAGE =        3238.3115               STORAGE =           2.7226
       CONSTANT HEAD =         744.4978         CONSTANT HEAD =           2.8818
       RIVER LEAKAGE =         741.2169         RIVER LEAKAGE =           0.0000
            RECHARGE =        3503.2500              RECHARGE =           0.0000

           TOTAL OUT =        8227.2764             TOTAL OUT =           5.6044

            IN - OUT =       9.7656E-04              IN - OUT =       1.1921E-04

 PERCENT DISCREPANCY =           0.00     PERCENT DISCREPANCY =           0.00






         TIME SUMMARY AT END OF TIME STEP    1 IN STRESS PERIOD  230
                    SECONDS     MINUTES      HOURS       DAYS        YEARS
                    -----------------------------------------------------------
   TIME STEP LENGTH  86400.      1440.0      24.000      1.0000     2.73785E-03
 STRESS PERIOD TIME  86400.      1440.0      24.000      1.0000     2.73785E-03
         TOTAL TIME 1.98720E+07 3.31200E+05  5520.0      230.00     0.62971    
1
1
                            STRESS PERIOD NO.  231, LENGTH =   1.000000    
                            -----------------------------------------------

                              NUMBER OF TIME STEPS =     1

                               MULTIPLIER FOR DELT =     1.000

                            INITIAL TIME STEP SIZE =   1.000000    

 REUSING NON-PARAMETER RIVER REACHES FROM LAST STRESS PERIOD

      2 RIVER REACHES

                 RECHARGE = -2.800000E-03
 
 SOLVING FOR HEAD 

 OUTPUT CONTROL FOR STRESS PERIOD  231   TIME STEP    1
    SAVE HEAD FOR ALL LAYERS

 HEAD WILL BE SAVED ON UNIT   51 AT END OF TIME STEP    1, STRESS PERIOD  231
1
  VOLUMETRIC BUDGET FOR ENTIRE MODEL AT END OF TIME STEP    1, STRESS PERIOD 231
  ------------------------------------------------------------------------------

     CUMULATIVE VOLUMES      L**3       RATES FOR THIS TIME STEP      L**3/T
     ------------------                 ------------------------

           IN:                                      IN:
           ---                                      ---
             STORAGE =        4241.3389               STORAGE =          26.7857
       CONSTANT HEAD =           0.0000         CONSTANT HEAD =           0.0000
       RIVER LEAKAGE =         323.8154         RIVER LEAKAGE =           4.0916
            RECHARGE =        3693.0000              RECHARGE =           0.0000

            TOTAL IN =        8258.1543              TOTAL IN =          30.8773

          OUT:                                     OUT:
          ----                                     ----
             STORAGE =        3238.3115               STORAGE =           0.0000
       CONSTANT HEAD =         747.3752         CONSTANT HEAD =           2.8774
       RIVER LEAKAGE =         741.2169         RIVER LEAKAGE =           0.0000
            RECHARGE =        3531.2500              RECHARGE =          28.0000

           TOTAL OUT =        8258.1543             TOTAL OUT =          30.8774

            IN - OUT =           0.0000              IN - OUT =      -6.4850E-05

 PERCENT DISCREPANCY =           0.00     PERCENT DISCREPANCY =          -0.00






         TIME SUMMARY AT END OF TIME STEP    1 IN STRESS PERIOD  231
                    SECONDS     MINUTES      HOURS       DAYS        YEARS
                    -----------------------------------------------------------
   TIME STEP LENGTH  86400.      1440.0      24.000      1.0000     2.73785E-03
 STRESS PERIOD TIME  86400.      1440.0      24.000      1.0000     2.73785E-03
         TOTAL TIME 1.99584E+07 3.32640E+05  5544.0      231.00     0.63244    
1
1
                            STRESS PERIOD NO.  232, LENGTH =   1.000000    
                            -----------------------------------------------

                              NUMBER OF TIME STEPS =     1

                               MULTIPLIER FOR DELT =     1.000

                            INITIAL TIME STEP SIZE =   1.000000    

 REUSING NON-PARAMETER RIVER REACHES FROM LAST STRESS PERIOD

      2 RIVER REACHES

                 RECHARGE =  1.400000E-03
 
 SOLVING FOR HEAD 

 OUTPUT CONTROL FOR STRESS PERIOD  232   TIME STEP    1
    SAVE HEAD FOR ALL LAYERS

 HEAD WILL BE SAVED ON UNIT   51 AT END OF TIME STEP    1, STRESS PERIOD  232
1
  VOLUMETRIC BUDGET FOR ENTIRE MODEL AT END OF TIME STEP    1, STRESS PERIOD 232
  ------------------------------------------------------------------------------

     CUMULATIVE VOLUMES      L**3       RATES FOR THIS TIME STEP      L**3/T
     ------------------                 ------------------------

           IN:                                      IN:
           ---                                      ---
             STORAGE =        4241.5811               STORAGE =           0.2423
       CONSTANT HEAD =           0.0000         CONSTANT HEAD =           0.0000
       RIVER LEAKAGE =         326.9068         RIVER LEAKAGE =           3.0914
            RECHARGE =        3707.0000              RECHARGE =          14.0000

            TOTAL IN =        8275.4883              TOTAL IN =          17.3337

          OUT:                                     OUT:
          ----                                     ----
             STORAGE =        3252.7710               STORAGE =          14.4594
       CONSTANT HEAD =         750.2494         CONSTANT HEAD =           2.8742
       RIVER LEAKAGE =         741.2169         RIVER LEAKAGE =           0.0000
            RECHARGE =        3531.2500              RECHARGE =           0.0000

           TOTAL OUT =        8275.4873             TOTAL OUT =          17.3337

            IN - OUT =       9.7656E-04              IN - OUT =       5.5313E-05

 PERCENT DISCREPANCY =           0.00     PERCENT DISCREPANCY =           0.00






         TIME SUMMARY AT END OF TIME STEP    1 IN STRESS PERIOD  232
                    SECONDS     MINUTES      HOURS       DAYS        YEARS
                    -----------------------------------------------------------
   TIME STEP LENGTH  86400.      1440.0      24.000      1.0000     2.73785E-03
 STRESS PERIOD TIME  86400.      1440.0      24.000      1.0000     2.73785E-03
         TOTAL TIME 2.00448E+07 3.34080E+05  5568.0      232.00     0.63518    
1
1
                            STRESS PERIOD NO.  233, LENGTH =   1.000000    
                            -----------------------------------------------

                              NUMBER OF TIME STEPS =     1

                               MULTIPLIER FOR DELT =     1.000

                            INITIAL TIME STEP SIZE =   1.000000    

 REUSING NON-PARAMETER RIVER REACHES FROM LAST STRESS PERIOD

      2 RIVER REACHES

                 RECHARGE =  4.700000E-03
 
 SOLVING FOR HEAD 

 OUTPUT CONTROL FOR STRESS PERIOD  233   TIME STEP    1
    SAVE HEAD FOR ALL LAYERS

 HEAD WILL BE SAVED ON UNIT   51 AT END OF TIME STEP    1, STRESS PERIOD  233
1
  VOLUMETRIC BUDGET FOR ENTIRE MODEL AT END OF TIME STEP    1, STRESS PERIOD 233
  ------------------------------------------------------------------------------

     CUMULATIVE VOLUMES      L**3       RATES FOR THIS TIME STEP      L**3/T
     ------------------                 ------------------------

           IN:                                      IN:
           ---                                      ---
             STORAGE =        4241.7910               STORAGE =           0.2100
       CONSTANT HEAD =           0.0000         CONSTANT HEAD =           0.0000
       RIVER LEAKAGE =         328.3132         RIVER LEAKAGE =           1.4063
            RECHARGE =        3754.0000              RECHARGE =          47.0000

            TOTAL IN =        8324.1035              TOTAL IN =          48.6164

          OUT:                                     OUT:
          ----                                     ----
             STORAGE =        3298.5146               STORAGE =          45.7437
       CONSTANT HEAD =         753.1220         CONSTANT HEAD =           2.8726
       RIVER LEAKAGE =         741.2169         RIVER LEAKAGE =           0.0000
            RECHARGE =        3531.2500              RECHARGE =           0.0000

           TOTAL OUT =        8324.1035             TOTAL OUT =          48.6163

            IN - OUT =           0.0000              IN - OUT =       5.3406E-05

 PERCENT DISCREPANCY =           0.00     PERCENT DISCREPANCY =           0.00






         TIME SUMMARY AT END OF TIME STEP    1 IN STRESS PERIOD  233
                    SECONDS     MINUTES      HOURS       DAYS        YEARS
                    -----------------------------------------------------------
   TIME STEP LENGTH  86400.      1440.0      24.000      1.0000     2.73785E-03
 STRESS PERIOD TIME  86400.      1440.0      24.000      1.0000     2.73785E-03
         TOTAL TIME 2.01312E+07 3.35520E+05  5592.0      233.00     0.63792    
1
1
                            STRESS PERIOD NO.  234, LENGTH =   1.000000    
                            -----------------------------------------------

                              NUMBER OF TIME STEPS =     1

                               MULTIPLIER FOR DELT =     1.000

                            INITIAL TIME STEP SIZE =   1.000000    

 REUSING NON-PARAMETER RIVER REACHES FROM LAST STRESS PERIOD

      2 RIVER REACHES

                 RECHARGE =  8.000000E-03
 
 SOLVING FOR HEAD 

 OUTPUT CONTROL FOR STRESS PERIOD  234   TIME STEP    1
    SAVE HEAD FOR ALL LAYERS

 HEAD WILL BE SAVED ON UNIT   51 AT END OF TIME STEP    1, STRESS PERIOD  234
1
  VOLUMETRIC BUDGET FOR ENTIRE MODEL AT END OF TIME STEP    1, STRESS PERIOD 234
  ------------------------------------------------------------------------------

     CUMULATIVE VOLUMES      L**3       RATES FOR THIS TIME STEP      L**3/T
     ------------------                 ------------------------

           IN:                                      IN:
           ---                                      ---
             STORAGE =        4241.9502               STORAGE =           0.1594
       CONSTANT HEAD =           0.0000         CONSTANT HEAD =           0.0000
       RIVER LEAKAGE =         328.3132         RIVER LEAKAGE =           0.0000
            RECHARGE =        3834.0000              RECHARGE =          80.0000

            TOTAL IN =        8404.2637              TOTAL IN =          80.1594

          OUT:                                     OUT:
          ----                                     ----
             STORAGE =        3374.9641               STORAGE =          76.4495
       CONSTANT HEAD =         755.9950         CONSTANT HEAD =           2.8730
       RIVER LEAKAGE =         742.0536         RIVER LEAKAGE =           0.8367
            RECHARGE =        3531.2500              RECHARGE =           0.0000

           TOTAL OUT =        8404.2627             TOTAL OUT =          80.1592

            IN - OUT =       9.7656E-04              IN - OUT =       1.4496E-04

 PERCENT DISCREPANCY =           0.00     PERCENT DISCREPANCY =           0.00






         TIME SUMMARY AT END OF TIME STEP    1 IN STRESS PERIOD  234
                    SECONDS     MINUTES      HOURS       DAYS        YEARS
                    -----------------------------------------------------------
   TIME STEP LENGTH  86400.      1440.0      24.000      1.0000     2.73785E-03
 STRESS PERIOD TIME  86400.      1440.0      24.000      1.0000     2.73785E-03
         TOTAL TIME 2.02176E+07 3.36960E+05  5616.0      234.00     0.64066    
1
1
                            STRESS PERIOD NO.  235, LENGTH =   1.000000    
                            -----------------------------------------------

                              NUMBER OF TIME STEPS =     1

                               MULTIPLIER FOR DELT =     1.000

                            INITIAL TIME STEP SIZE =   1.000000    

 REUSING NON-PARAMETER RIVER REACHES FROM LAST STRESS PERIOD

      2 RIVER REACHES

                 RECHARGE = -3.075000E-03
 
 SOLVING FOR HEAD 

 OUTPUT CONTROL FOR STRESS PERIOD  235   TIME STEP    1
    SAVE HEAD FOR ALL LAYERS

 HEAD WILL BE SAVED ON UNIT   51 AT END OF TIME STEP    1, STRESS PERIOD  235
1
  VOLUMETRIC BUDGET FOR ENTIRE MODEL AT END OF TIME STEP    1, STRESS PERIOD 235
  ------------------------------------------------------------------------------

     CUMULATIVE VOLUMES      L**3       RATES FOR THIS TIME STEP      L**3/T
     ------------------                 ------------------------

           IN:                                      IN:
           ---                                      ---
             STORAGE =        4274.1216               STORAGE =          32.1714
       CONSTANT HEAD =           0.0000         CONSTANT HEAD =           0.0000
       RIVER LEAKAGE =         329.7621         RIVER LEAKAGE =           1.4490
            RECHARGE =        3834.0000              RECHARGE =           0.0000

            TOTAL IN =        8437.8838              TOTAL IN =          33.6204

          OUT:                                     OUT:
          ----                                     ----
             STORAGE =        3374.9641               STORAGE =           0.0000
       CONSTANT HEAD =         758.8656         CONSTANT HEAD =           2.8706
       RIVER LEAKAGE =         742.0536         RIVER LEAKAGE =           0.0000
            RECHARGE =        3562.0000              RECHARGE =          30.7500

           TOTAL OUT =        8437.8828             TOTAL OUT =          33.6206

            IN - OUT =       9.7656E-04              IN - OUT =      -2.1362E-04

 PERCENT DISCREPANCY =           0.00     PERCENT DISCREPANCY =          -0.00






         TIME SUMMARY AT END OF TIME STEP    1 IN STRESS PERIOD  235
                    SECONDS     MINUTES      HOURS       DAYS        YEARS
                    -----------------------------------------------------------
   TIME STEP LENGTH  86400.      1440.0      24.000      1.0000     2.73785E-03
 STRESS PERIOD TIME  86400.      1440.0      24.000      1.0000     2.73785E-03
         TOTAL TIME 2.03040E+07 3.38400E+05  5640.0      235.00     0.64339    
1
1
                            STRESS PERIOD NO.  236, LENGTH =   1.000000    
                            -----------------------------------------------

                              NUMBER OF TIME STEPS =     1

                               MULTIPLIER FOR DELT =     1.000

                            INITIAL TIME STEP SIZE =   1.000000    

 REUSING NON-PARAMETER RIVER REACHES FROM LAST STRESS PERIOD

      2 RIVER REACHES

                 RECHARGE = -1.700000E-03
 
 SOLVING FOR HEAD 

 OUTPUT CONTROL FOR STRESS PERIOD  236   TIME STEP    1
    SAVE HEAD FOR ALL LAYERS

 HEAD WILL BE SAVED ON UNIT   51 AT END OF TIME STEP    1, STRESS PERIOD  236
1
  VOLUMETRIC BUDGET FOR ENTIRE MODEL AT END OF TIME STEP    1, STRESS PERIOD 236
  ------------------------------------------------------------------------------

     CUMULATIVE VOLUMES      L**3       RATES FOR THIS TIME STEP      L**3/T
     ------------------                 ------------------------

           IN:                                      IN:
           ---                                      ---
             STORAGE =        4291.8940               STORAGE =          17.7726
       CONSTANT HEAD =           0.0000         CONSTANT HEAD =           0.0000
       RIVER LEAKAGE =         331.8575         RIVER LEAKAGE =           2.0954
            RECHARGE =        3834.0000              RECHARGE =           0.0000

            TOTAL IN =        8457.7520              TOTAL IN =          19.8680

          OUT:                                     OUT:
          ----                                     ----
             STORAGE =        3374.9641               STORAGE =           0.0000
       CONSTANT HEAD =         761.7335         CONSTANT HEAD =           2.8679
       RIVER LEAKAGE =         742.0536         RIVER LEAKAGE =           0.0000
            RECHARGE =        3579.0000              RECHARGE =          17.0000

           TOTAL OUT =        8457.7520             TOTAL OUT =          19.8679

            IN - OUT =           0.0000              IN - OUT =       1.8692E-04

 PERCENT DISCREPANCY =           0.00     PERCENT DISCREPANCY =           0.00






         TIME SUMMARY AT END OF TIME STEP    1 IN STRESS PERIOD  236
                    SECONDS     MINUTES      HOURS       DAYS        YEARS
                    -----------------------------------------------------------
   TIME STEP LENGTH  86400.      1440.0      24.000      1.0000     2.73785E-03
 STRESS PERIOD TIME  86400.      1440.0      24.000      1.0000     2.73785E-03
         TOTAL TIME 2.03904E+07 3.39840E+05  5664.0      236.00     0.64613    
1
1
                            STRESS PERIOD NO.  237, LENGTH =   1.000000    
                            -----------------------------------------------

                              NUMBER OF TIME STEPS =     1

                               MULTIPLIER FOR DELT =     1.000

                            INITIAL TIME STEP SIZE =   1.000000    

 REUSING NON-PARAMETER RIVER REACHES FROM LAST STRESS PERIOD

      2 RIVER REACHES

                 RECHARGE = -3.400000E-03
 
 SOLVING FOR HEAD 

 OUTPUT CONTROL FOR STRESS PERIOD  237   TIME STEP    1
    SAVE HEAD FOR ALL LAYERS

 HEAD WILL BE SAVED ON UNIT   51 AT END OF TIME STEP    1, STRESS PERIOD  237
1
  VOLUMETRIC BUDGET FOR ENTIRE MODEL AT END OF TIME STEP    1, STRESS PERIOD 237
  ------------------------------------------------------------------------------

     CUMULATIVE VOLUMES      L**3       RATES FOR THIS TIME STEP      L**3/T
     ------------------                 ------------------------

           IN:                                      IN:
           ---                                      ---
             STORAGE =        4325.6118               STORAGE =          33.7180
       CONSTANT HEAD =           0.0000         CONSTANT HEAD =           0.0000
       RIVER LEAKAGE =         335.0038         RIVER LEAKAGE =           3.1462
            RECHARGE =        3834.0000              RECHARGE =           0.0000

            TOTAL IN =        8494.6152              TOTAL IN =          36.8642

          OUT:                                     OUT:
          ----                                     ----
             STORAGE =        3374.9641               STORAGE =           0.0000
       CONSTANT HEAD =         764.5977         CONSTANT HEAD =           2.8643
       RIVER LEAKAGE =         742.0536         RIVER LEAKAGE =           0.0000
            RECHARGE =        3613.0000              RECHARGE =          34.0000

           TOTAL OUT =        8494.6152             TOTAL OUT =          36.8643

            IN - OUT =           0.0000              IN - OUT =      -9.5367E-05

 PERCENT DISCREPANCY =           0.00     PERCENT DISCREPANCY =          -0.00






         TIME SUMMARY AT END OF TIME STEP    1 IN STRESS PERIOD  237
                    SECONDS     MINUTES      HOURS       DAYS        YEARS
                    -----------------------------------------------------------
   TIME STEP LENGTH  86400.      1440.0      24.000      1.0000     2.73785E-03
 STRESS PERIOD TIME  86400.      1440.0      24.000      1.0000     2.73785E-03
         TOTAL TIME 2.04768E+07 3.41280E+05  5688.0      237.00     0.64887    
1
1
                            STRESS PERIOD NO.  238, LENGTH =   1.000000    
                            -----------------------------------------------

                              NUMBER OF TIME STEPS =     1

                               MULTIPLIER FOR DELT =     1.000

                            INITIAL TIME STEP SIZE =   1.000000    

 REUSING NON-PARAMETER RIVER REACHES FROM LAST STRESS PERIOD

      2 RIVER REACHES

                 RECHARGE = -3.200000E-03
 
 SOLVING FOR HEAD 

 OUTPUT CONTROL FOR STRESS PERIOD  238   TIME STEP    1
    SAVE HEAD FOR ALL LAYERS

 HEAD WILL BE SAVED ON UNIT   51 AT END OF TIME STEP    1, STRESS PERIOD  238
1
  VOLUMETRIC BUDGET FOR ENTIRE MODEL AT END OF TIME STEP    1, STRESS PERIOD 238
  ------------------------------------------------------------------------------

     CUMULATIVE VOLUMES      L**3       RATES FOR THIS TIME STEP      L**3/T
     ------------------                 ------------------------

           IN:                                      IN:
           ---                                      ---
             STORAGE =        4356.6748               STORAGE =          31.0627
       CONSTANT HEAD =           0.0000         CONSTANT HEAD =           0.0000
       RIVER LEAKAGE =         338.8013         RIVER LEAKAGE =           3.7976
            RECHARGE =        3834.0000              RECHARGE =           0.0000

            TOTAL IN =        8529.4766              TOTAL IN =          34.8603

          OUT:                                     OUT:
          ----                                     ----
             STORAGE =        3374.9641               STORAGE =           0.0000
       CONSTANT HEAD =         767.4579         CONSTANT HEAD =           2.8602
       RIVER LEAKAGE =         742.0536         RIVER LEAKAGE =           0.0000
            RECHARGE =        3645.0000              RECHARGE =          32.0000

           TOTAL OUT =        8529.4756             TOTAL OUT =          34.8602

            IN - OUT =       9.7656E-04              IN - OUT =       8.3923E-05

 PERCENT DISCREPANCY =           0.00     PERCENT DISCREPANCY =           0.00






         TIME SUMMARY AT END OF TIME STEP    1 IN STRESS PERIOD  238
                    SECONDS     MINUTES      HOURS       DAYS        YEARS
                    -----------------------------------------------------------
   TIME STEP LENGTH  86400.      1440.0      24.000      1.0000     2.73785E-03
 STRESS PERIOD TIME  86400.      1440.0      24.000      1.0000     2.73785E-03
         TOTAL TIME 2.05632E+07 3.42720E+05  5712.0      238.00     0.65161    
1
1
                            STRESS PERIOD NO.  239, LENGTH =   1.000000    
                            -----------------------------------------------

                              NUMBER OF TIME STEPS =     1

                               MULTIPLIER FOR DELT =     1.000

                            INITIAL TIME STEP SIZE =   1.000000    

 REUSING NON-PARAMETER RIVER REACHES FROM LAST STRESS PERIOD

      2 RIVER REACHES

                 RECHARGE = -2.375000E-03
 
 SOLVING FOR HEAD 

 OUTPUT CONTROL FOR STRESS PERIOD  239   TIME STEP    1
    SAVE HEAD FOR ALL LAYERS

 HEAD WILL BE SAVED ON UNIT   51 AT END OF TIME STEP    1, STRESS PERIOD  239
1
  VOLUMETRIC BUDGET FOR ENTIRE MODEL AT END OF TIME STEP    1, STRESS PERIOD 239
  ------------------------------------------------------------------------------

     CUMULATIVE VOLUMES      L**3       RATES FOR THIS TIME STEP      L**3/T
     ------------------                 ------------------------

           IN:                                      IN:
           ---                                      ---
             STORAGE =        4379.2388               STORAGE =          22.5642
       CONSTANT HEAD =           0.0000         CONSTANT HEAD =           0.0000
       RIVER LEAKAGE =         342.8431         RIVER LEAKAGE =           4.0418
            RECHARGE =        3834.0000              RECHARGE =           0.0000

            TOTAL IN =        8556.0820              TOTAL IN =          26.6060

          OUT:                                     OUT:
          ----                                     ----
             STORAGE =        3374.9641               STORAGE =           0.0000
       CONSTANT HEAD =         770.3141         CONSTANT HEAD =           2.8562
       RIVER LEAKAGE =         742.0536         RIVER LEAKAGE =           0.0000
            RECHARGE =        3668.7500              RECHARGE =          23.7500

           TOTAL OUT =        8556.0820             TOTAL OUT =          26.6062

            IN - OUT =           0.0000              IN - OUT =      -1.6403E-04

 PERCENT DISCREPANCY =           0.00     PERCENT DISCREPANCY =          -0.00






         TIME SUMMARY AT END OF TIME STEP    1 IN STRESS PERIOD  239
                    SECONDS     MINUTES      HOURS       DAYS        YEARS
                    -----------------------------------------------------------
   TIME STEP LENGTH  86400.      1440.0      24.000      1.0000     2.73785E-03
 STRESS PERIOD TIME  86400.      1440.0      24.000      1.0000     2.73785E-03
         TOTAL TIME 2.06496E+07 3.44160E+05  5736.0      239.00     0.65435    
1
1
                            STRESS PERIOD NO.  240, LENGTH =   1.000000    
                            -----------------------------------------------

                              NUMBER OF TIME STEPS =     1

                               MULTIPLIER FOR DELT =     1.000

                            INITIAL TIME STEP SIZE =   1.000000    

 REUSING NON-PARAMETER RIVER REACHES FROM LAST STRESS PERIOD

      2 RIVER REACHES

                 RECHARGE = -3.200000E-03
 
 SOLVING FOR HEAD 

 OUTPUT CONTROL FOR STRESS PERIOD  240   TIME STEP    1
    SAVE HEAD FOR ALL LAYERS

 HEAD WILL BE SAVED ON UNIT   51 AT END OF TIME STEP    1, STRESS PERIOD  240
1
  VOLUMETRIC BUDGET FOR ENTIRE MODEL AT END OF TIME STEP    1, STRESS PERIOD 240
  ------------------------------------------------------------------------------

     CUMULATIVE VOLUMES      L**3       RATES FOR THIS TIME STEP      L**3/T
     ------------------                 ------------------------

           IN:                                      IN:
           ---                                      ---
             STORAGE =        4409.4873               STORAGE =          30.2485
       CONSTANT HEAD =           0.0000         CONSTANT HEAD =           0.0000
       RIVER LEAKAGE =         347.4464         RIVER LEAKAGE =           4.6032
            RECHARGE =        3834.0000              RECHARGE =           0.0000

            TOTAL IN =        8590.9336              TOTAL IN =          34.8517

          OUT:                                     OUT:
          ----                                     ----
             STORAGE =        3374.9641               STORAGE =           0.0000
       CONSTANT HEAD =         773.1658         CONSTANT HEAD =           2.8517
       RIVER LEAKAGE =         742.0536         RIVER LEAKAGE =           0.0000
            RECHARGE =        3700.7500              RECHARGE =          32.0000

           TOTAL OUT =        8590.9336             TOTAL OUT =          34.8517

            IN - OUT =           0.0000              IN - OUT =       4.9591E-05

 PERCENT DISCREPANCY =           0.00     PERCENT DISCREPANCY =           0.00






         TIME SUMMARY AT END OF TIME STEP    1 IN STRESS PERIOD  240
                    SECONDS     MINUTES      HOURS       DAYS        YEARS
                    -----------------------------------------------------------
   TIME STEP LENGTH  86400.      1440.0      24.000      1.0000     2.73785E-03
 STRESS PERIOD TIME  86400.      1440.0      24.000      1.0000     2.73785E-03
         TOTAL TIME 2.07360E+07 3.45600E+05  5760.0      240.00     0.65708    
1
1
                            STRESS PERIOD NO.  241, LENGTH =   1.000000    
                            -----------------------------------------------

                              NUMBER OF TIME STEPS =     1

                               MULTIPLIER FOR DELT =     1.000

                            INITIAL TIME STEP SIZE =   1.000000    

 REUSING NON-PARAMETER RIVER REACHES FROM LAST STRESS PERIOD

      2 RIVER REACHES

                 RECHARGE = -3.100000E-03
 
 SOLVING FOR HEAD 

 OUTPUT CONTROL FOR STRESS PERIOD  241   TIME STEP    1
    SAVE HEAD FOR ALL LAYERS

 HEAD WILL BE SAVED ON UNIT   51 AT END OF TIME STEP    1, STRESS PERIOD  241
1
  VOLUMETRIC BUDGET FOR ENTIRE MODEL AT END OF TIME STEP    1, STRESS PERIOD 241
  ------------------------------------------------------------------------------

     CUMULATIVE VOLUMES      L**3       RATES FOR THIS TIME STEP      L**3/T
     ------------------                 ------------------------

           IN:                                      IN:
           ---                                      ---
             STORAGE =        4438.3257               STORAGE =          28.8386
       CONSTANT HEAD =           0.0000         CONSTANT HEAD =           0.0000
       RIVER LEAKAGE =         352.4548         RIVER LEAKAGE =           5.0084
            RECHARGE =        3834.0000              RECHARGE =           0.0000

            TOTAL IN =        8624.7803              TOTAL IN =          33.8470

          OUT:                                     OUT:
          ----                                     ----
             STORAGE =        3374.9641               STORAGE =           0.0000
       CONSTANT HEAD =         776.0128         CONSTANT HEAD =           2.8470
       RIVER LEAKAGE =         742.0536         RIVER LEAKAGE =           0.0000
            RECHARGE =        3731.7500              RECHARGE =          31.0000

           TOTAL OUT =        8624.7812             TOTAL OUT =          33.8470

            IN - OUT =      -9.7656E-04              IN - OUT =       2.6703E-05

 PERCENT DISCREPANCY =          -0.00     PERCENT DISCREPANCY =           0.00






         TIME SUMMARY AT END OF TIME STEP    1 IN STRESS PERIOD  241
                    SECONDS     MINUTES      HOURS       DAYS        YEARS
                    -----------------------------------------------------------
   TIME STEP LENGTH  86400.      1440.0      24.000      1.0000     2.73785E-03
 STRESS PERIOD TIME  86400.      1440.0      24.000      1.0000     2.73785E-03
         TOTAL TIME 2.08224E+07 3.47040E+05  5784.0      241.00     0.65982    
1
1
                            STRESS PERIOD NO.  242, LENGTH =   1.000000    
                            -----------------------------------------------

                              NUMBER OF TIME STEPS =     1

                               MULTIPLIER FOR DELT =     1.000

                            INITIAL TIME STEP SIZE =   1.000000    

 REUSING NON-PARAMETER RIVER REACHES FROM LAST STRESS PERIOD

      2 RIVER REACHES

                 RECHARGE = -3.300000E-03
 
 SOLVING FOR HEAD 

 OUTPUT CONTROL FOR STRESS PERIOD  242   TIME STEP    1
    SAVE HEAD FOR ALL LAYERS

 HEAD WILL BE SAVED ON UNIT   51 AT END OF TIME STEP    1, STRESS PERIOD  242
1
  VOLUMETRIC BUDGET FOR ENTIRE MODEL AT END OF TIME STEP    1, STRESS PERIOD 242
  ------------------------------------------------------------------------------

     CUMULATIVE VOLUMES      L**3       RATES FOR THIS TIME STEP      L**3/T
     ------------------                 ------------------------

           IN:                                      IN:
           ---                                      ---
             STORAGE =        4468.7295               STORAGE =          30.4039
       CONSTANT HEAD =           0.0000         CONSTANT HEAD =           0.0000
       RIVER LEAKAGE =         357.8929         RIVER LEAKAGE =           5.4381
            RECHARGE =        3834.0000              RECHARGE =           0.0000

            TOTAL IN =        8660.6230              TOTAL IN =          35.8419

          OUT:                                     OUT:
          ----                                     ----
             STORAGE =        3374.9641               STORAGE =           0.0000
       CONSTANT HEAD =         778.8548         CONSTANT HEAD =           2.8420
       RIVER LEAKAGE =         742.0536         RIVER LEAKAGE =           0.0000
            RECHARGE =        3764.7500              RECHARGE =          33.0000

           TOTAL OUT =        8660.6230             TOTAL OUT =          35.8420

            IN - OUT =           0.0000              IN - OUT =      -3.0518E-05

 PERCENT DISCREPANCY =           0.00     PERCENT DISCREPANCY =          -0.00






         TIME SUMMARY AT END OF TIME STEP    1 IN STRESS PERIOD  242
                    SECONDS     MINUTES      HOURS       DAYS        YEARS
                    -----------------------------------------------------------
   TIME STEP LENGTH  86400.      1440.0      24.000      1.0000     2.73785E-03
 STRESS PERIOD TIME  86400.      1440.0      24.000      1.0000     2.73785E-03
         TOTAL TIME 2.09088E+07 3.48480E+05  5808.0      242.00     0.66256    
1
1
                            STRESS PERIOD NO.  243, LENGTH =   1.000000    
                            -----------------------------------------------

                              NUMBER OF TIME STEPS =     1

                               MULTIPLIER FOR DELT =     1.000

                            INITIAL TIME STEP SIZE =   1.000000    

 REUSING NON-PARAMETER RIVER REACHES FROM LAST STRESS PERIOD

      2 RIVER REACHES

                 RECHARGE = -3.500000E-03
 
 SOLVING FOR HEAD 

 OUTPUT CONTROL FOR STRESS PERIOD  243   TIME STEP    1
    SAVE HEAD FOR ALL LAYERS

 HEAD WILL BE SAVED ON UNIT   51 AT END OF TIME STEP    1, STRESS PERIOD  243
1
  VOLUMETRIC BUDGET FOR ENTIRE MODEL AT END OF TIME STEP    1, STRESS PERIOD 243
  ------------------------------------------------------------------------------

     CUMULATIVE VOLUMES      L**3       RATES FOR THIS TIME STEP      L**3/T
     ------------------                 ------------------------

           IN:                                      IN:
           ---                                      ---
             STORAGE =        4500.6890               STORAGE =          31.9593
       CONSTANT HEAD =           0.0000         CONSTANT HEAD =           0.0000
       RIVER LEAKAGE =         363.7703         RIVER LEAKAGE =           5.8774
            RECHARGE =        3834.0000              RECHARGE =           0.0000

            TOTAL IN =        8698.4590              TOTAL IN =          37.8366

          OUT:                                     OUT:
          ----                                     ----
             STORAGE =        3374.9641               STORAGE =           0.0000
       CONSTANT HEAD =         781.6915         CONSTANT HEAD =           2.8367
       RIVER LEAKAGE =         742.0536         RIVER LEAKAGE =           0.0000
            RECHARGE =        3799.7500              RECHARGE =          35.0000

           TOTAL OUT =        8698.4590             TOTAL OUT =          37.8367

            IN - OUT =           0.0000              IN - OUT =      -1.5259E-05

 PERCENT DISCREPANCY =           0.00     PERCENT DISCREPANCY =          -0.00






         TIME SUMMARY AT END OF TIME STEP    1 IN STRESS PERIOD  243
                    SECONDS     MINUTES      HOURS       DAYS        YEARS
                    -----------------------------------------------------------
   TIME STEP LENGTH  86400.      1440.0      24.000      1.0000     2.73785E-03
 STRESS PERIOD TIME  86400.      1440.0      24.000      1.0000     2.73785E-03
         TOTAL TIME 2.09952E+07 3.49920E+05  5832.0      243.00     0.66530    
1
1
                            STRESS PERIOD NO.  244, LENGTH =   1.000000    
                            -----------------------------------------------

                              NUMBER OF TIME STEPS =     1

                               MULTIPLIER FOR DELT =     1.000

                            INITIAL TIME STEP SIZE =   1.000000    

 REUSING NON-PARAMETER RIVER REACHES FROM LAST STRESS PERIOD

      2 RIVER REACHES

                 RECHARGE = -1.600000E-03
 
 SOLVING FOR HEAD 

 OUTPUT CONTROL FOR STRESS PERIOD  244   TIME STEP    1
    SAVE HEAD FOR ALL LAYERS

 HEAD WILL BE SAVED ON UNIT   51 AT END OF TIME STEP    1, STRESS PERIOD  244
1
  VOLUMETRIC BUDGET FOR ENTIRE MODEL AT END OF TIME STEP    1, STRESS PERIOD 244
  ------------------------------------------------------------------------------

     CUMULATIVE VOLUMES      L**3       RATES FOR THIS TIME STEP      L**3/T
     ------------------                 ------------------------

           IN:                                      IN:
           ---                                      ---
             STORAGE =        4514.1445               STORAGE =          13.4554
       CONSTANT HEAD =           0.0000         CONSTANT HEAD =           0.0000
       RIVER LEAKAGE =         369.3685         RIVER LEAKAGE =           5.5983
            RECHARGE =        3834.0000              RECHARGE =           0.0000

            TOTAL IN =        8717.5137              TOTAL IN =          19.0536

          OUT:                                     OUT:
          ----                                     ----
             STORAGE =        3375.1860               STORAGE =           0.2219
       CONSTANT HEAD =         784.5233         CONSTANT HEAD =           2.8318
       RIVER LEAKAGE =         742.0536         RIVER LEAKAGE =           0.0000
            RECHARGE =        3815.7500              RECHARGE =          16.0000

           TOTAL OUT =        8717.5137             TOTAL OUT =          19.0537

            IN - OUT =           0.0000              IN - OUT =      -1.1063E-04

 PERCENT DISCREPANCY =           0.00     PERCENT DISCREPANCY =          -0.00






         TIME SUMMARY AT END OF TIME STEP    1 IN STRESS PERIOD  244
                    SECONDS     MINUTES      HOURS       DAYS        YEARS
                    -----------------------------------------------------------
   TIME STEP LENGTH  86400.      1440.0      24.000      1.0000     2.73785E-03
 STRESS PERIOD TIME  86400.      1440.0      24.000      1.0000     2.73785E-03
         TOTAL TIME 2.10816E+07 3.51360E+05  5856.0      244.00     0.66804    
1
1
                            STRESS PERIOD NO.  245, LENGTH =   1.000000    
                            -----------------------------------------------

                              NUMBER OF TIME STEPS =     1

                               MULTIPLIER FOR DELT =     1.000

                            INITIAL TIME STEP SIZE =   1.000000    

 REUSING NON-PARAMETER RIVER REACHES FROM LAST STRESS PERIOD

      2 RIVER REACHES

                 RECHARGE =  7.900000E-03
 
 SOLVING FOR HEAD 

 OUTPUT CONTROL FOR STRESS PERIOD  245   TIME STEP    1
    SAVE HEAD FOR ALL LAYERS

 HEAD WILL BE SAVED ON UNIT   51 AT END OF TIME STEP    1, STRESS PERIOD  245
1
  VOLUMETRIC BUDGET FOR ENTIRE MODEL AT END OF TIME STEP    1, STRESS PERIOD 245
  ------------------------------------------------------------------------------

     CUMULATIVE VOLUMES      L**3       RATES FOR THIS TIME STEP      L**3/T
     ------------------                 ------------------------

           IN:                                      IN:
           ---                                      ---
             STORAGE =        4514.3867               STORAGE =           0.2422
       CONSTANT HEAD =           0.0000         CONSTANT HEAD =           0.0000
       RIVER LEAKAGE =         371.6132         RIVER LEAKAGE =           2.2447
            RECHARGE =        3913.0000              RECHARGE =          79.0000

            TOTAL IN =        8799.0000              TOTAL IN =          81.4869

          OUT:                                     OUT:
          ----                                     ----
             STORAGE =        3453.8425               STORAGE =          78.6566
       CONSTANT HEAD =         787.3536         CONSTANT HEAD =           2.8303
       RIVER LEAKAGE =         742.0536         RIVER LEAKAGE =           0.0000
            RECHARGE =        3815.7500              RECHARGE =           0.0000

           TOTAL OUT =        8799.0000             TOTAL OUT =          81.4869

            IN - OUT =           0.0000              IN - OUT =      -2.2888E-05

 PERCENT DISCREPANCY =           0.00     PERCENT DISCREPANCY =          -0.00






         TIME SUMMARY AT END OF TIME STEP    1 IN STRESS PERIOD  245
                    SECONDS     MINUTES      HOURS       DAYS        YEARS
                    -----------------------------------------------------------
   TIME STEP LENGTH  86400.      1440.0      24.000      1.0000     2.73785E-03
 STRESS PERIOD TIME  86400.      1440.0      24.000      1.0000     2.73785E-03
         TOTAL TIME 2.11680E+07 3.52800E+05  5880.0      245.00     0.67077    
1
1
                            STRESS PERIOD NO.  246, LENGTH =   1.000000    
                            -----------------------------------------------

                              NUMBER OF TIME STEPS =     1

                               MULTIPLIER FOR DELT =     1.000

                            INITIAL TIME STEP SIZE =   1.000000    

 REUSING NON-PARAMETER RIVER REACHES FROM LAST STRESS PERIOD

      2 RIVER REACHES

                 RECHARGE = -2.000000E-04
 
 SOLVING FOR HEAD 

 OUTPUT CONTROL FOR STRESS PERIOD  246   TIME STEP    1
    SAVE HEAD FOR ALL LAYERS

 HEAD WILL BE SAVED ON UNIT   51 AT END OF TIME STEP    1, STRESS PERIOD  246
1
  VOLUMETRIC BUDGET FOR ENTIRE MODEL AT END OF TIME STEP    1, STRESS PERIOD 246
  ------------------------------------------------------------------------------

     CUMULATIVE VOLUMES      L**3       RATES FOR THIS TIME STEP      L**3/T
     ------------------                 ------------------------

           IN:                                      IN:
           ---                                      ---
             STORAGE =        4516.7305               STORAGE =           2.3439
       CONSTANT HEAD =           0.0000         CONSTANT HEAD =           0.0000
       RIVER LEAKAGE =         374.6269         RIVER LEAKAGE =           3.0137
            RECHARGE =        3913.0000              RECHARGE =           0.0000

            TOTAL IN =        8804.3574              TOTAL IN =           5.3576

          OUT:                                     OUT:
          ----                                     ----
             STORAGE =        3454.3726               STORAGE =           0.5300
       CONSTANT HEAD =         790.1812         CONSTANT HEAD =           2.8276
       RIVER LEAKAGE =         742.0536         RIVER LEAKAGE =           0.0000
            RECHARGE =        3817.7500              RECHARGE =           2.0000

           TOTAL OUT =        8804.3574             TOTAL OUT =           5.3576

            IN - OUT =           0.0000              IN - OUT =       2.1935E-05

 PERCENT DISCREPANCY =           0.00     PERCENT DISCREPANCY =           0.00






         TIME SUMMARY AT END OF TIME STEP    1 IN STRESS PERIOD  246
                    SECONDS     MINUTES      HOURS       DAYS        YEARS
                    -----------------------------------------------------------
   TIME STEP LENGTH  86400.      1440.0      24.000      1.0000     2.73785E-03
 STRESS PERIOD TIME  86400.      1440.0      24.000      1.0000     2.73785E-03
         TOTAL TIME 2.12544E+07 3.54240E+05  5904.0      246.00     0.67351    
1
1
                            STRESS PERIOD NO.  247, LENGTH =   1.000000    
                            -----------------------------------------------

                              NUMBER OF TIME STEPS =     1

                               MULTIPLIER FOR DELT =     1.000

                            INITIAL TIME STEP SIZE =   1.000000    

 REUSING NON-PARAMETER RIVER REACHES FROM LAST STRESS PERIOD

      2 RIVER REACHES

                 RECHARGE = -1.700000E-03
 
 SOLVING FOR HEAD 

 OUTPUT CONTROL FOR STRESS PERIOD  247   TIME STEP    1
    SAVE HEAD FOR ALL LAYERS

 HEAD WILL BE SAVED ON UNIT   51 AT END OF TIME STEP    1, STRESS PERIOD  247
1
  VOLUMETRIC BUDGET FOR ENTIRE MODEL AT END OF TIME STEP    1, STRESS PERIOD 247
  ------------------------------------------------------------------------------

     CUMULATIVE VOLUMES      L**3       RATES FOR THIS TIME STEP      L**3/T
     ------------------                 ------------------------

           IN:                                      IN:
           ---                                      ---
             STORAGE =        4532.8228               STORAGE =          16.0921
       CONSTANT HEAD =           0.0000         CONSTANT HEAD =           0.0000
       RIVER LEAKAGE =         378.3589         RIVER LEAKAGE =           3.7321
            RECHARGE =        3913.0000              RECHARGE =           0.0000

            TOTAL IN =        8824.1816              TOTAL IN =          19.8242

          OUT:                                     OUT:
          ----                                     ----
             STORAGE =        3454.3726               STORAGE =           0.0000
       CONSTANT HEAD =         793.0052         CONSTANT HEAD =           2.8241
       RIVER LEAKAGE =         742.0536         RIVER LEAKAGE =           0.0000
            RECHARGE =        3834.7500              RECHARGE =          17.0000

           TOTAL OUT =        8824.1816             TOTAL OUT =          19.8241

            IN - OUT =           0.0000              IN - OUT =       7.2479E-05

 PERCENT DISCREPANCY =           0.00     PERCENT DISCREPANCY =           0.00






         TIME SUMMARY AT END OF TIME STEP    1 IN STRESS PERIOD  247
                    SECONDS     MINUTES      HOURS       DAYS        YEARS
                    -----------------------------------------------------------
   TIME STEP LENGTH  86400.      1440.0      24.000      1.0000     2.73785E-03
 STRESS PERIOD TIME  86400.      1440.0      24.000      1.0000     2.73785E-03
         TOTAL TIME 2.13408E+07 3.55680E+05  5928.0      247.00     0.67625    
1
1
                            STRESS PERIOD NO.  248, LENGTH =   1.000000    
                            -----------------------------------------------

                              NUMBER OF TIME STEPS =     1

                               MULTIPLIER FOR DELT =     1.000

                            INITIAL TIME STEP SIZE =   1.000000    

 REUSING NON-PARAMETER RIVER REACHES FROM LAST STRESS PERIOD

      2 RIVER REACHES

                 RECHARGE = -2.400000E-03
 
 SOLVING FOR HEAD 

 OUTPUT CONTROL FOR STRESS PERIOD  248   TIME STEP    1
    SAVE HEAD FOR ALL LAYERS

 HEAD WILL BE SAVED ON UNIT   51 AT END OF TIME STEP    1, STRESS PERIOD  248
1
  VOLUMETRIC BUDGET FOR ENTIRE MODEL AT END OF TIME STEP    1, STRESS PERIOD 248
  ------------------------------------------------------------------------------

     CUMULATIVE VOLUMES      L**3       RATES FOR THIS TIME STEP      L**3/T
     ------------------                 ------------------------

           IN:                                      IN:
           ---                                      ---
             STORAGE =        4555.2773               STORAGE =          22.4544
       CONSTANT HEAD =           0.0000         CONSTANT HEAD =           0.0000
       RIVER LEAKAGE =         382.7246         RIVER LEAKAGE =           4.3656
            RECHARGE =        3913.0000              RECHARGE =           0.0000

            TOTAL IN =        8851.0020              TOTAL IN =          26.8201

          OUT:                                     OUT:
          ----                                     ----
             STORAGE =        3454.3726               STORAGE =           0.0000
       CONSTANT HEAD =         795.8254         CONSTANT HEAD =           2.8201
       RIVER LEAKAGE =         742.0536         RIVER LEAKAGE =           0.0000
            RECHARGE =        3858.7500              RECHARGE =          24.0000

           TOTAL OUT =        8851.0020             TOTAL OUT =          26.8201

            IN - OUT =           0.0000              IN - OUT =      -1.5259E-05

 PERCENT DISCREPANCY =           0.00     PERCENT DISCREPANCY =          -0.00






         TIME SUMMARY AT END OF TIME STEP    1 IN STRESS PERIOD  248
                    SECONDS     MINUTES      HOURS       DAYS        YEARS
                    -----------------------------------------------------------
   TIME STEP LENGTH  86400.      1440.0      24.000      1.0000     2.73785E-03
 STRESS PERIOD TIME  86400.      1440.0      24.000      1.0000     2.73785E-03
         TOTAL TIME 2.14272E+07 3.57120E+05  5952.0      248.00     0.67899    
1
1
                            STRESS PERIOD NO.  249, LENGTH =   1.000000    
                            -----------------------------------------------

                              NUMBER OF TIME STEPS =     1

                               MULTIPLIER FOR DELT =     1.000

                            INITIAL TIME STEP SIZE =   1.000000    

 REUSING NON-PARAMETER RIVER REACHES FROM LAST STRESS PERIOD

      2 RIVER REACHES

                 RECHARGE = -2.400000E-03
 
 SOLVING FOR HEAD 

 OUTPUT CONTROL FOR STRESS PERIOD  249   TIME STEP    1
    SAVE HEAD FOR ALL LAYERS

 HEAD WILL BE SAVED ON UNIT   51 AT END OF TIME STEP    1, STRESS PERIOD  249
1
  VOLUMETRIC BUDGET FOR ENTIRE MODEL AT END OF TIME STEP    1, STRESS PERIOD 249
  ------------------------------------------------------------------------------

     CUMULATIVE VOLUMES      L**3       RATES FOR THIS TIME STEP      L**3/T
     ------------------                 ------------------------

           IN:                                      IN:
           ---                                      ---
             STORAGE =        4577.3032               STORAGE =          22.0260
       CONSTANT HEAD =           0.0000         CONSTANT HEAD =           0.0000
       RIVER LEAKAGE =         387.5144         RIVER LEAKAGE =           4.7898
            RECHARGE =        3913.0000              RECHARGE =           0.0000

            TOTAL IN =        8877.8184              TOTAL IN =          26.8159

          OUT:                                     OUT:
          ----                                     ----
             STORAGE =        3454.3726               STORAGE =           0.0000
       CONSTANT HEAD =         798.6412         CONSTANT HEAD =           2.8159
       RIVER LEAKAGE =         742.0536         RIVER LEAKAGE =           0.0000
            RECHARGE =        3882.7500              RECHARGE =          24.0000

           TOTAL OUT =        8877.8174             TOTAL OUT =          26.8159

            IN - OUT =       9.7656E-04              IN - OUT =           0.0000

 PERCENT DISCREPANCY =           0.00     PERCENT DISCREPANCY =           0.00






         TIME SUMMARY AT END OF TIME STEP    1 IN STRESS PERIOD  249
                    SECONDS     MINUTES      HOURS       DAYS        YEARS
                    -----------------------------------------------------------
   TIME STEP LENGTH  86400.      1440.0      24.000      1.0000     2.73785E-03
 STRESS PERIOD TIME  86400.      1440.0      24.000      1.0000     2.73785E-03
         TOTAL TIME 2.15136E+07 3.58560E+05  5976.0      249.00     0.68172    
1
1
                            STRESS PERIOD NO.  250, LENGTH =   1.000000    
                            -----------------------------------------------

                              NUMBER OF TIME STEPS =     1

                               MULTIPLIER FOR DELT =     1.000

                            INITIAL TIME STEP SIZE =   1.000000    

 REUSING NON-PARAMETER RIVER REACHES FROM LAST STRESS PERIOD

      2 RIVER REACHES

                 RECHARGE = -2.700000E-03
 
 SOLVING FOR HEAD 

 OUTPUT CONTROL FOR STRESS PERIOD  250   TIME STEP    1
    SAVE HEAD FOR ALL LAYERS

 HEAD WILL BE SAVED ON UNIT   51 AT END OF TIME STEP    1, STRESS PERIOD  250
1
  VOLUMETRIC BUDGET FOR ENTIRE MODEL AT END OF TIME STEP    1, STRESS PERIOD 250
  ------------------------------------------------------------------------------

     CUMULATIVE VOLUMES      L**3       RATES FOR THIS TIME STEP      L**3/T
     ------------------                 ------------------------

           IN:                                      IN:
           ---                                      ---
             STORAGE =        4601.8887               STORAGE =          24.5853
       CONSTANT HEAD =           0.0000         CONSTANT HEAD =           0.0000
       RIVER LEAKAGE =         392.7404         RIVER LEAKAGE =           5.2260
            RECHARGE =        3913.0000              RECHARGE =           0.0000

            TOTAL IN =        8907.6289              TOTAL IN =          29.8113

          OUT:                                     OUT:
          ----                                     ----
             STORAGE =        3454.3726               STORAGE =           0.0000
       CONSTANT HEAD =         801.4525         CONSTANT HEAD =           2.8113
       RIVER LEAKAGE =         742.0536         RIVER LEAKAGE =           0.0000
            RECHARGE =        3909.7500              RECHARGE =          27.0000

           TOTAL OUT =        8907.6289             TOTAL OUT =          29.8113

            IN - OUT =           0.0000              IN - OUT =      -5.1498E-05

 PERCENT DISCREPANCY =           0.00     PERCENT DISCREPANCY =          -0.00






         TIME SUMMARY AT END OF TIME STEP    1 IN STRESS PERIOD  250
                    SECONDS     MINUTES      HOURS       DAYS        YEARS
                    -----------------------------------------------------------
   TIME STEP LENGTH  86400.      1440.0      24.000      1.0000     2.73785E-03
 STRESS PERIOD TIME  86400.      1440.0      24.000      1.0000     2.73785E-03
         TOTAL TIME 2.16000E+07 3.60000E+05  6000.0      250.00     0.68446    
1
1
                            STRESS PERIOD NO.  251, LENGTH =   1.000000    
                            -----------------------------------------------

                              NUMBER OF TIME STEPS =     1

                               MULTIPLIER FOR DELT =     1.000

                            INITIAL TIME STEP SIZE =   1.000000    

 REUSING NON-PARAMETER RIVER REACHES FROM LAST STRESS PERIOD

      2 RIVER REACHES

                 RECHARGE = -8.000000E-04
 
 SOLVING FOR HEAD 

 OUTPUT CONTROL FOR STRESS PERIOD  251   TIME STEP    1
    SAVE HEAD FOR ALL LAYERS

 HEAD WILL BE SAVED ON UNIT   51 AT END OF TIME STEP    1, STRESS PERIOD  251
1
  VOLUMETRIC BUDGET FOR ENTIRE MODEL AT END OF TIME STEP    1, STRESS PERIOD 251
  ------------------------------------------------------------------------------

     CUMULATIVE VOLUMES      L**3       RATES FOR THIS TIME STEP      L**3/T
     ------------------                 ------------------------

           IN:                                      IN:
           ---                                      ---
             STORAGE =        4608.1650               STORAGE =           6.2763
       CONSTANT HEAD =           0.0000         CONSTANT HEAD =           0.0000
       RIVER LEAKAGE =         397.6540         RIVER LEAKAGE =           4.9136
            RECHARGE =        3913.0000              RECHARGE =           0.0000

            TOTAL IN =        8918.8184              TOTAL IN =          11.1899

          OUT:                                     OUT:
          ----                                     ----
             STORAGE =        3454.7554               STORAGE =           0.3828
       CONSTANT HEAD =         804.2597         CONSTANT HEAD =           2.8072
       RIVER LEAKAGE =         742.0536         RIVER LEAKAGE =           0.0000
            RECHARGE =        3917.7500              RECHARGE =           8.0000

           TOTAL OUT =        8918.8184             TOTAL OUT =          11.1900

            IN - OUT =           0.0000              IN - OUT =      -1.0109E-04

 PERCENT DISCREPANCY =           0.00     PERCENT DISCREPANCY =          -0.00






         TIME SUMMARY AT END OF TIME STEP    1 IN STRESS PERIOD  251
                    SECONDS     MINUTES      HOURS       DAYS        YEARS
                    -----------------------------------------------------------
   TIME STEP LENGTH  86400.      1440.0      24.000      1.0000     2.73785E-03
 STRESS PERIOD TIME  86400.      1440.0      24.000      1.0000     2.73785E-03
         TOTAL TIME 2.16864E+07 3.61440E+05  6024.0      251.00     0.68720    
1
1
                            STRESS PERIOD NO.  252, LENGTH =   1.000000    
                            -----------------------------------------------

                              NUMBER OF TIME STEPS =     1

                               MULTIPLIER FOR DELT =     1.000

                            INITIAL TIME STEP SIZE =   1.000000    

 REUSING NON-PARAMETER RIVER REACHES FROM LAST STRESS PERIOD

      2 RIVER REACHES

                 RECHARGE =  1.800000E-03
 
 SOLVING FOR HEAD 

 OUTPUT CONTROL FOR STRESS PERIOD  252   TIME STEP    1
    SAVE HEAD FOR ALL LAYERS

 HEAD WILL BE SAVED ON UNIT   51 AT END OF TIME STEP    1, STRESS PERIOD  252
1
  VOLUMETRIC BUDGET FOR ENTIRE MODEL AT END OF TIME STEP    1, STRESS PERIOD 252
  ------------------------------------------------------------------------------

     CUMULATIVE VOLUMES      L**3       RATES FOR THIS TIME STEP      L**3/T
     ------------------                 ------------------------

           IN:                                      IN:
           ---                                      ---
             STORAGE =        4608.4277               STORAGE =           0.2627
       CONSTANT HEAD =           0.0000         CONSTANT HEAD =           0.0000
       RIVER LEAKAGE =         401.5571         RIVER LEAKAGE =           3.9031
            RECHARGE =        3931.0000              RECHARGE =          18.0000

            TOTAL IN =        8940.9844              TOTAL IN =          22.1658

          OUT:                                     OUT:
          ----                                     ----
             STORAGE =        3474.1169               STORAGE =          19.3616
       CONSTANT HEAD =         807.0638         CONSTANT HEAD =           2.8041
       RIVER LEAKAGE =         742.0536         RIVER LEAKAGE =           0.0000
            RECHARGE =        3917.7500              RECHARGE =           0.0000

           TOTAL OUT =        8940.9844             TOTAL OUT =          22.1657

            IN - OUT =           0.0000              IN - OUT =       4.1962E-05

 PERCENT DISCREPANCY =           0.00     PERCENT DISCREPANCY =           0.00






         TIME SUMMARY AT END OF TIME STEP    1 IN STRESS PERIOD  252
                    SECONDS     MINUTES      HOURS       DAYS        YEARS
                    -----------------------------------------------------------
   TIME STEP LENGTH  86400.      1440.0      24.000      1.0000     2.73785E-03
 STRESS PERIOD TIME  86400.      1440.0      24.000      1.0000     2.73785E-03
         TOTAL TIME 2.17728E+07 3.62880E+05  6048.0      252.00     0.68994    
1
1
                            STRESS PERIOD NO.  253, LENGTH =   1.000000    
                            -----------------------------------------------

                              NUMBER OF TIME STEPS =     1

                               MULTIPLIER FOR DELT =     1.000

                            INITIAL TIME STEP SIZE =   1.000000    

 REUSING NON-PARAMETER RIVER REACHES FROM LAST STRESS PERIOD

      2 RIVER REACHES

                 RECHARGE =  1.400000E-03
 
 SOLVING FOR HEAD 

 OUTPUT CONTROL FOR STRESS PERIOD  253   TIME STEP    1
    SAVE HEAD FOR ALL LAYERS

 HEAD WILL BE SAVED ON UNIT   51 AT END OF TIME STEP    1, STRESS PERIOD  253
1
  VOLUMETRIC BUDGET FOR ENTIRE MODEL AT END OF TIME STEP    1, STRESS PERIOD 253
  ------------------------------------------------------------------------------

     CUMULATIVE VOLUMES      L**3       RATES FOR THIS TIME STEP      L**3/T
     ------------------                 ------------------------

           IN:                                      IN:
           ---                                      ---
             STORAGE =        4608.6777               STORAGE =           0.2499
       CONSTANT HEAD =           0.0000         CONSTANT HEAD =           0.0000
       RIVER LEAKAGE =         404.9913         RIVER LEAKAGE =           3.4342
            RECHARGE =        3945.0000              RECHARGE =          14.0000

            TOTAL IN =        8958.6689              TOTAL IN =          17.6841

          OUT:                                     OUT:
          ----                                     ----
             STORAGE =        3488.9998               STORAGE =          14.8827
       CONSTANT HEAD =         809.8652         CONSTANT HEAD =           2.8014
       RIVER LEAKAGE =         742.0536         RIVER LEAKAGE =           0.0000
            RECHARGE =        3917.7500              RECHARGE =           0.0000

           TOTAL OUT =        8958.6689             TOTAL OUT =          17.6841

            IN - OUT =           0.0000              IN - OUT =       2.2888E-05

 PERCENT DISCREPANCY =           0.00     PERCENT DISCREPANCY =           0.00






         TIME SUMMARY AT END OF TIME STEP    1 IN STRESS PERIOD  253
                    SECONDS     MINUTES      HOURS       DAYS        YEARS
                    -----------------------------------------------------------
   TIME STEP LENGTH  86400.      1440.0      24.000      1.0000     2.73785E-03
 STRESS PERIOD TIME  86400.      1440.0      24.000      1.0000     2.73785E-03
         TOTAL TIME 2.18592E+07 3.64320E+05  6072.0      253.00     0.69268    
1
1
                            STRESS PERIOD NO.  254, LENGTH =   1.000000    
                            -----------------------------------------------

                              NUMBER OF TIME STEPS =     1

                               MULTIPLIER FOR DELT =     1.000

                            INITIAL TIME STEP SIZE =   1.000000    

 REUSING NON-PARAMETER RIVER REACHES FROM LAST STRESS PERIOD

      2 RIVER REACHES

                 RECHARGE =  1.680000E-02
 
 SOLVING FOR HEAD 

 OUTPUT CONTROL FOR STRESS PERIOD  254   TIME STEP    1
    SAVE HEAD FOR ALL LAYERS

 HEAD WILL BE SAVED ON UNIT   51 AT END OF TIME STEP    1, STRESS PERIOD  254
1
  VOLUMETRIC BUDGET FOR ENTIRE MODEL AT END OF TIME STEP    1, STRESS PERIOD 254
  ------------------------------------------------------------------------------

     CUMULATIVE VOLUMES      L**3       RATES FOR THIS TIME STEP      L**3/T
     ------------------                 ------------------------

           IN:                                      IN:
           ---                                      ---
             STORAGE =        4608.8242               STORAGE =           0.1463
       CONSTANT HEAD =           0.0000         CONSTANT HEAD =           0.0000
       RIVER LEAKAGE =         404.9913         RIVER LEAKAGE =           0.0000
            RECHARGE =        4113.0000              RECHARGE =         168.0000

            TOTAL IN =        9126.8154              TOTAL IN =         168.1463

          OUT:                                     OUT:
          ----                                     ----
             STORAGE =        3652.0593               STORAGE =         163.0595
       CONSTANT HEAD =         812.6695         CONSTANT HEAD =           2.8043
       RIVER LEAKAGE =         744.3363         RIVER LEAKAGE =           2.2827
            RECHARGE =        3917.7500              RECHARGE =           0.0000

           TOTAL OUT =        9126.8154             TOTAL OUT =         168.1465

            IN - OUT =           0.0000              IN - OUT =      -1.6785E-04

 PERCENT DISCREPANCY =           0.00     PERCENT DISCREPANCY =          -0.00






         TIME SUMMARY AT END OF TIME STEP    1 IN STRESS PERIOD  254
                    SECONDS     MINUTES      HOURS       DAYS        YEARS
                    -----------------------------------------------------------
   TIME STEP LENGTH  86400.      1440.0      24.000      1.0000     2.73785E-03
 STRESS PERIOD TIME  86400.      1440.0      24.000      1.0000     2.73785E-03
         TOTAL TIME 2.19456E+07 3.65760E+05  6096.0      254.00     0.69541    
1
1
                            STRESS PERIOD NO.  255, LENGTH =   1.000000    
                            -----------------------------------------------

                              NUMBER OF TIME STEPS =     1

                               MULTIPLIER FOR DELT =     1.000

                            INITIAL TIME STEP SIZE =   1.000000    

 REUSING NON-PARAMETER RIVER REACHES FROM LAST STRESS PERIOD

      2 RIVER REACHES

                 RECHARGE =  1.090000E-02
 
 SOLVING FOR HEAD 

 OUTPUT CONTROL FOR STRESS PERIOD  255   TIME STEP    1
    SAVE HEAD FOR ALL LAYERS

 HEAD WILL BE SAVED ON UNIT   51 AT END OF TIME STEP    1, STRESS PERIOD  255
1
  VOLUMETRIC BUDGET FOR ENTIRE MODEL AT END OF TIME STEP    1, STRESS PERIOD 255
  ------------------------------------------------------------------------------

     CUMULATIVE VOLUMES      L**3       RATES FOR THIS TIME STEP      L**3/T
     ------------------                 ------------------------

           IN:                                      IN:
           ---                                      ---
             STORAGE =        4608.9131               STORAGE =       8.8873E-02
       CONSTANT HEAD =           0.0000         CONSTANT HEAD =           0.0000
       RIVER LEAKAGE =         404.9913         RIVER LEAKAGE =           0.0000
            RECHARGE =        4222.0000              RECHARGE =         109.0000

            TOTAL IN =        9235.9043              TOTAL IN =         109.0889

          OUT:                                     OUT:
          ----                                     ----
             STORAGE =        3754.4736               STORAGE =         102.4143
       CONSTANT HEAD =         815.4772         CONSTANT HEAD =           2.8077
       RIVER LEAKAGE =         748.2034         RIVER LEAKAGE =           3.8671
            RECHARGE =        3917.7500              RECHARGE =           0.0000

           TOTAL OUT =        9235.9043             TOTAL OUT =         109.0891

            IN - OUT =           0.0000              IN - OUT =      -2.2888E-04

 PERCENT DISCREPANCY =           0.00     PERCENT DISCREPANCY =          -0.00






         TIME SUMMARY AT END OF TIME STEP    1 IN STRESS PERIOD  255
                    SECONDS     MINUTES      HOURS       DAYS        YEARS
                    -----------------------------------------------------------
   TIME STEP LENGTH  86400.      1440.0      24.000      1.0000     2.73785E-03
 STRESS PERIOD TIME  86400.      1440.0      24.000      1.0000     2.73785E-03
         TOTAL TIME 2.20320E+07 3.67200E+05  6120.0      255.00     0.69815    
1
1
                            STRESS PERIOD NO.  256, LENGTH =   1.000000    
                            -----------------------------------------------

                              NUMBER OF TIME STEPS =     1

                               MULTIPLIER FOR DELT =     1.000

                            INITIAL TIME STEP SIZE =   1.000000    

 REUSING NON-PARAMETER RIVER REACHES FROM LAST STRESS PERIOD

      2 RIVER REACHES

                 RECHARGE = -1.100000E-03
 
 SOLVING FOR HEAD 

 OUTPUT CONTROL FOR STRESS PERIOD  256   TIME STEP    1
    SAVE HEAD FOR ALL LAYERS

 HEAD WILL BE SAVED ON UNIT   51 AT END OF TIME STEP    1, STRESS PERIOD  256
1
  VOLUMETRIC BUDGET FOR ENTIRE MODEL AT END OF TIME STEP    1, STRESS PERIOD 256
  ------------------------------------------------------------------------------

     CUMULATIVE VOLUMES      L**3       RATES FOR THIS TIME STEP      L**3/T
     ------------------                 ------------------------

           IN:                                      IN:
           ---                                      ---
             STORAGE =        4623.9683               STORAGE =          15.0553
       CONSTANT HEAD =           0.0000         CONSTANT HEAD =           0.0000
       RIVER LEAKAGE =         404.9913         RIVER LEAKAGE =           0.0000
            RECHARGE =        4222.0000              RECHARGE =           0.0000

            TOTAL IN =        9250.9590              TOTAL IN =          15.0553

          OUT:                                     OUT:
          ----                                     ----
             STORAGE =        3754.4766               STORAGE =       2.8877E-03
       CONSTANT HEAD =         818.2852         CONSTANT HEAD =           2.8080
       RIVER LEAKAGE =         749.4478         RIVER LEAKAGE =           1.2443
            RECHARGE =        3928.7500              RECHARGE =          11.0000

           TOTAL OUT =        9250.9590             TOTAL OUT =          15.0552

            IN - OUT =           0.0000              IN - OUT =       1.4782E-04

 PERCENT DISCREPANCY =           0.00     PERCENT DISCREPANCY =           0.00






         TIME SUMMARY AT END OF TIME STEP    1 IN STRESS PERIOD  256
                    SECONDS     MINUTES      HOURS       DAYS        YEARS
                    -----------------------------------------------------------
   TIME STEP LENGTH  86400.      1440.0      24.000      1.0000     2.73785E-03
 STRESS PERIOD TIME  86400.      1440.0      24.000      1.0000     2.73785E-03
         TOTAL TIME 2.21184E+07 3.68640E+05  6144.0      256.00     0.70089    
1
1
                            STRESS PERIOD NO.  257, LENGTH =   1.000000    
                            -----------------------------------------------

                              NUMBER OF TIME STEPS =     1

                               MULTIPLIER FOR DELT =     1.000

                            INITIAL TIME STEP SIZE =   1.000000    

 REUSING NON-PARAMETER RIVER REACHES FROM LAST STRESS PERIOD

      2 RIVER REACHES

                 RECHARGE =  8.000000E-03
 
 SOLVING FOR HEAD 

 OUTPUT CONTROL FOR STRESS PERIOD  257   TIME STEP    1
    SAVE HEAD FOR ALL LAYERS

 HEAD WILL BE SAVED ON UNIT   51 AT END OF TIME STEP    1, STRESS PERIOD  257
1
  VOLUMETRIC BUDGET FOR ENTIRE MODEL AT END OF TIME STEP    1, STRESS PERIOD 257
  ------------------------------------------------------------------------------

     CUMULATIVE VOLUMES      L**3       RATES FOR THIS TIME STEP      L**3/T
     ------------------                 ------------------------

           IN:                                      IN:
           ---                                      ---
             STORAGE =        4624.0234               STORAGE =       5.5087E-02
       CONSTANT HEAD =           0.0000         CONSTANT HEAD =           0.0000
       RIVER LEAKAGE =         404.9913         RIVER LEAKAGE =           0.0000
            RECHARGE =        4302.0000              RECHARGE =          80.0000

            TOTAL IN =        9331.0146              TOTAL IN =          80.0551

          OUT:                                     OUT:
          ----                                     ----
             STORAGE =        3828.4907               STORAGE =          74.0143
       CONSTANT HEAD =         821.0957         CONSTANT HEAD =           2.8105
       RIVER LEAKAGE =         752.6779         RIVER LEAKAGE =           3.2302
            RECHARGE =        3928.7500              RECHARGE =           0.0000

           TOTAL OUT =        9331.0137             TOTAL OUT =          80.0550

            IN - OUT =       9.7656E-04              IN - OUT =       9.9182E-05

 PERCENT DISCREPANCY =           0.00     PERCENT DISCREPANCY =           0.00






         TIME SUMMARY AT END OF TIME STEP    1 IN STRESS PERIOD  257
                    SECONDS     MINUTES      HOURS       DAYS        YEARS
                    -----------------------------------------------------------
   TIME STEP LENGTH  86400.      1440.0      24.000      1.0000     2.73785E-03
 STRESS PERIOD TIME  86400.      1440.0      24.000      1.0000     2.73785E-03
         TOTAL TIME 2.22048E+07 3.70080E+05  6168.0      257.00     0.70363    
1
1
                            STRESS PERIOD NO.  258, LENGTH =   1.000000    
                            -----------------------------------------------

                              NUMBER OF TIME STEPS =     1

                               MULTIPLIER FOR DELT =     1.000

                            INITIAL TIME STEP SIZE =   1.000000    

 REUSING NON-PARAMETER RIVER REACHES FROM LAST STRESS PERIOD

      2 RIVER REACHES

                 RECHARGE = -2.400000E-03
 
 SOLVING FOR HEAD 

 OUTPUT CONTROL FOR STRESS PERIOD  258   TIME STEP    1
    SAVE HEAD FOR ALL LAYERS

 HEAD WILL BE SAVED ON UNIT   51 AT END OF TIME STEP    1, STRESS PERIOD  258
1
  VOLUMETRIC BUDGET FOR ENTIRE MODEL AT END OF TIME STEP    1, STRESS PERIOD 258
  ------------------------------------------------------------------------------

     CUMULATIVE VOLUMES      L**3       RATES FOR THIS TIME STEP      L**3/T
     ------------------                 ------------------------

           IN:                                      IN:
           ---                                      ---
             STORAGE =        4651.6851               STORAGE =          27.6615
       CONSTANT HEAD =           0.0000         CONSTANT HEAD =           0.0000
       RIVER LEAKAGE =         404.9913         RIVER LEAKAGE =           0.0000
            RECHARGE =        4302.0000              RECHARGE =           0.0000

            TOTAL IN =        9358.6758              TOTAL IN =          27.6615

          OUT:                                     OUT:
          ----                                     ----
             STORAGE =        3828.4937               STORAGE =       2.9802E-03
       CONSTANT HEAD =         823.9061         CONSTANT HEAD =           2.8104
       RIVER LEAKAGE =         753.5260         RIVER LEAKAGE =           0.8481
            RECHARGE =        3952.7500              RECHARGE =          24.0000

           TOTAL OUT =        9358.6758             TOTAL OUT =          27.6614

            IN - OUT =           0.0000              IN - OUT =       1.2589E-04

 PERCENT DISCREPANCY =           0.00     PERCENT DISCREPANCY =           0.00






         TIME SUMMARY AT END OF TIME STEP    1 IN STRESS PERIOD  258
                    SECONDS     MINUTES      HOURS       DAYS        YEARS
                    -----------------------------------------------------------
   TIME STEP LENGTH  86400.      1440.0      24.000      1.0000     2.73785E-03
 STRESS PERIOD TIME  86400.      1440.0      24.000      1.0000     2.73785E-03
         TOTAL TIME 2.22912E+07 3.71520E+05  6192.0      258.00     0.70637    
1
1
                            STRESS PERIOD NO.  259, LENGTH =   1.000000    
                            -----------------------------------------------

                              NUMBER OF TIME STEPS =     1

                               MULTIPLIER FOR DELT =     1.000

                            INITIAL TIME STEP SIZE =   1.000000    

 REUSING NON-PARAMETER RIVER REACHES FROM LAST STRESS PERIOD

      2 RIVER REACHES

                 RECHARGE =  1.050000E-02
 
 SOLVING FOR HEAD 

 OUTPUT CONTROL FOR STRESS PERIOD  259   TIME STEP    1
    SAVE HEAD FOR ALL LAYERS

 HEAD WILL BE SAVED ON UNIT   51 AT END OF TIME STEP    1, STRESS PERIOD  259
1
  VOLUMETRIC BUDGET FOR ENTIRE MODEL AT END OF TIME STEP    1, STRESS PERIOD 259
  ------------------------------------------------------------------------------

     CUMULATIVE VOLUMES      L**3       RATES FOR THIS TIME STEP      L**3/T
     ------------------                 ------------------------

           IN:                                      IN:
           ---                                      ---
             STORAGE =        4651.7085               STORAGE =       2.3360E-02
       CONSTANT HEAD =           0.0000         CONSTANT HEAD =           0.0000
       RIVER LEAKAGE =         404.9913         RIVER LEAKAGE =           0.0000
            RECHARGE =        4407.0000              RECHARGE =         105.0000

            TOTAL IN =        9463.6992              TOTAL IN =         105.0234

          OUT:                                     OUT:
          ----                                     ----
             STORAGE =        3926.5957               STORAGE =          98.1021
       CONSTANT HEAD =         826.7198         CONSTANT HEAD =           2.8138
       RIVER LEAKAGE =         757.6335         RIVER LEAKAGE =           4.1075
            RECHARGE =        3952.7500              RECHARGE =           0.0000

           TOTAL OUT =        9463.6992             TOTAL OUT =         105.0234

            IN - OUT =           0.0000              IN - OUT =      -1.5259E-05

 PERCENT DISCREPANCY =           0.00     PERCENT DISCREPANCY =          -0.00






         TIME SUMMARY AT END OF TIME STEP    1 IN STRESS PERIOD  259
                    SECONDS     MINUTES      HOURS       DAYS        YEARS
                    -----------------------------------------------------------
   TIME STEP LENGTH  86400.      1440.0      24.000      1.0000     2.73785E-03
 STRESS PERIOD TIME  86400.      1440.0      24.000      1.0000     2.73785E-03
         TOTAL TIME 2.23776E+07 3.72960E+05  6216.0      259.00     0.70910    
1
1
                            STRESS PERIOD NO.  260, LENGTH =   1.000000    
                            -----------------------------------------------

                              NUMBER OF TIME STEPS =     1

                               MULTIPLIER FOR DELT =     1.000

                            INITIAL TIME STEP SIZE =   1.000000    

 REUSING NON-PARAMETER RIVER REACHES FROM LAST STRESS PERIOD

      2 RIVER REACHES

                 RECHARGE =  1.970000E-02
 
 SOLVING FOR HEAD 

 OUTPUT CONTROL FOR STRESS PERIOD  260   TIME STEP    1
    SAVE HEAD FOR ALL LAYERS

 HEAD WILL BE SAVED ON UNIT   51 AT END OF TIME STEP    1, STRESS PERIOD  260
1
  VOLUMETRIC BUDGET FOR ENTIRE MODEL AT END OF TIME STEP    1, STRESS PERIOD 260
  ------------------------------------------------------------------------------

     CUMULATIVE VOLUMES      L**3       RATES FOR THIS TIME STEP      L**3/T
     ------------------                 ------------------------

           IN:                                      IN:
           ---                                      ---
             STORAGE =        4651.7085               STORAGE =           0.0000
       CONSTANT HEAD =           0.0000         CONSTANT HEAD =           0.0000
       RIVER LEAKAGE =         404.9913         RIVER LEAKAGE =           0.0000
            RECHARGE =        4604.0000              RECHARGE =         197.0000

            TOTAL IN =        9660.6992              TOTAL IN =         197.0000

          OUT:                                     OUT:
          ----                                     ----
             STORAGE =        4111.4819               STORAGE =         184.8861
       CONSTANT HEAD =         829.5417         CONSTANT HEAD =           2.8218
       RIVER LEAKAGE =         766.9255         RIVER LEAKAGE =           9.2921
            RECHARGE =        3952.7500              RECHARGE =           0.0000

           TOTAL OUT =        9660.6992             TOTAL OUT =         197.0000

            IN - OUT =           0.0000              IN - OUT =           0.0000

 PERCENT DISCREPANCY =           0.00     PERCENT DISCREPANCY =           0.00






         TIME SUMMARY AT END OF TIME STEP    1 IN STRESS PERIOD  260
                    SECONDS     MINUTES      HOURS       DAYS        YEARS
                    -----------------------------------------------------------
   TIME STEP LENGTH  86400.      1440.0      24.000      1.0000     2.73785E-03
 STRESS PERIOD TIME  86400.      1440.0      24.000      1.0000     2.73785E-03
         TOTAL TIME 2.24640E+07 3.74400E+05  6240.0      260.00     0.71184    
1
1
                            STRESS PERIOD NO.  261, LENGTH =   1.000000    
                            -----------------------------------------------

                              NUMBER OF TIME STEPS =     1

                               MULTIPLIER FOR DELT =     1.000

                            INITIAL TIME STEP SIZE =   1.000000    

 REUSING NON-PARAMETER RIVER REACHES FROM LAST STRESS PERIOD

      2 RIVER REACHES

                 RECHARGE =  2.300000E-03
 
 SOLVING FOR HEAD 

 OUTPUT CONTROL FOR STRESS PERIOD  261   TIME STEP    1
    SAVE HEAD FOR ALL LAYERS

 HEAD WILL BE SAVED ON UNIT   51 AT END OF TIME STEP    1, STRESS PERIOD  261
1
  VOLUMETRIC BUDGET FOR ENTIRE MODEL AT END OF TIME STEP    1, STRESS PERIOD 261
  ------------------------------------------------------------------------------

     CUMULATIVE VOLUMES      L**3       RATES FOR THIS TIME STEP      L**3/T
     ------------------                 ------------------------

           IN:                                      IN:
           ---                                      ---
             STORAGE =        4655.2529               STORAGE =           3.5442
       CONSTANT HEAD =           0.0000         CONSTANT HEAD =           0.0000
       RIVER LEAKAGE =         404.9913         RIVER LEAKAGE =           0.0000
            RECHARGE =        4627.0000              RECHARGE =          23.0000

            TOTAL IN =        9687.2441              TOTAL IN =          26.5442

          OUT:                                     OUT:
          ----                                     ----
             STORAGE =        4128.4780               STORAGE =          16.9963
       CONSTANT HEAD =         832.3680         CONSTANT HEAD =           2.8263
       RIVER LEAKAGE =         773.6469         RIVER LEAKAGE =           6.7214
            RECHARGE =        3952.7500              RECHARGE =           0.0000

           TOTAL OUT =        9687.2432             TOTAL OUT =          26.5440

            IN - OUT =       9.7656E-04              IN - OUT =       1.9646E-04

 PERCENT DISCREPANCY =           0.00     PERCENT DISCREPANCY =           0.00






         TIME SUMMARY AT END OF TIME STEP    1 IN STRESS PERIOD  261
                    SECONDS     MINUTES      HOURS       DAYS        YEARS
                    -----------------------------------------------------------
   TIME STEP LENGTH  86400.      1440.0      24.000      1.0000     2.73785E-03
 STRESS PERIOD TIME  86400.      1440.0      24.000      1.0000     2.73785E-03
         TOTAL TIME 2.25504E+07 3.75840E+05  6264.0      261.00     0.71458    
1
1
                            STRESS PERIOD NO.  262, LENGTH =   1.000000    
                            -----------------------------------------------

                              NUMBER OF TIME STEPS =     1

                               MULTIPLIER FOR DELT =     1.000

                            INITIAL TIME STEP SIZE =   1.000000    

 REUSING NON-PARAMETER RIVER REACHES FROM LAST STRESS PERIOD

      2 RIVER REACHES

                 RECHARGE =  1.310000E-02
 
 SOLVING FOR HEAD 

 OUTPUT CONTROL FOR STRESS PERIOD  262   TIME STEP    1
    SAVE HEAD FOR ALL LAYERS

 HEAD WILL BE SAVED ON UNIT   51 AT END OF TIME STEP    1, STRESS PERIOD  262
1
  VOLUMETRIC BUDGET FOR ENTIRE MODEL AT END OF TIME STEP    1, STRESS PERIOD 262
  ------------------------------------------------------------------------------

     CUMULATIVE VOLUMES      L**3       RATES FOR THIS TIME STEP      L**3/T
     ------------------                 ------------------------

           IN:                                      IN:
           ---                                      ---
             STORAGE =        4655.2529               STORAGE =           0.0000
       CONSTANT HEAD =           0.0000         CONSTANT HEAD =           0.0000
       RIVER LEAKAGE =         404.9913         RIVER LEAKAGE =           0.0000
            RECHARGE =        4758.0000              RECHARGE =         131.0000

            TOTAL IN =        9818.2441              TOTAL IN =         131.0000

          OUT:                                     OUT:
          ----                                     ----
             STORAGE =        4247.0781               STORAGE =         118.6002
       CONSTANT HEAD =         835.2017         CONSTANT HEAD =           2.8337
       RIVER LEAKAGE =         783.2131         RIVER LEAKAGE =           9.5662
            RECHARGE =        3952.7500              RECHARGE =           0.0000

           TOTAL OUT =        9818.2422             TOTAL OUT =         131.0001

            IN - OUT =       1.9531E-03              IN - OUT =      -6.1035E-05

 PERCENT DISCREPANCY =           0.00     PERCENT DISCREPANCY =          -0.00






         TIME SUMMARY AT END OF TIME STEP    1 IN STRESS PERIOD  262
                    SECONDS     MINUTES      HOURS       DAYS        YEARS
                    -----------------------------------------------------------
   TIME STEP LENGTH  86400.      1440.0      24.000      1.0000     2.73785E-03
 STRESS PERIOD TIME  86400.      1440.0      24.000      1.0000     2.73785E-03
         TOTAL TIME 2.26368E+07 3.77280E+05  6288.0      262.00     0.71732    
1
1
                            STRESS PERIOD NO.  263, LENGTH =   1.000000    
                            -----------------------------------------------

                              NUMBER OF TIME STEPS =     1

                               MULTIPLIER FOR DELT =     1.000

                            INITIAL TIME STEP SIZE =   1.000000    

 REUSING NON-PARAMETER RIVER REACHES FROM LAST STRESS PERIOD

      2 RIVER REACHES

                 RECHARGE = -1.875000E-03
 
 SOLVING FOR HEAD 

 OUTPUT CONTROL FOR STRESS PERIOD  263   TIME STEP    1
    SAVE HEAD FOR ALL LAYERS

 HEAD WILL BE SAVED ON UNIT   51 AT END OF TIME STEP    1, STRESS PERIOD  263
1
  VOLUMETRIC BUDGET FOR ENTIRE MODEL AT END OF TIME STEP    1, STRESS PERIOD 263
  ------------------------------------------------------------------------------

     CUMULATIVE VOLUMES      L**3       RATES FOR THIS TIME STEP      L**3/T
     ------------------                 ------------------------

           IN:                                      IN:
           ---                                      ---
             STORAGE =        4683.2021               STORAGE =          27.9491
       CONSTANT HEAD =           0.0000         CONSTANT HEAD =           0.0000
       RIVER LEAKAGE =         404.9913         RIVER LEAKAGE =           0.0000
            RECHARGE =        4758.0000              RECHARGE =           0.0000

            TOTAL IN =        9846.1934              TOTAL IN =          27.9491

          OUT:                                     OUT:
          ----                                     ----
             STORAGE =        4247.2480               STORAGE =           0.1698
       CONSTANT HEAD =         838.0390         CONSTANT HEAD =           2.8373
       RIVER LEAKAGE =         789.4050         RIVER LEAKAGE =           6.1919
            RECHARGE =        3971.5000              RECHARGE =          18.7500

           TOTAL OUT =        9846.1914             TOTAL OUT =          27.9490

            IN - OUT =       1.9531E-03              IN - OUT =       1.7738E-04

 PERCENT DISCREPANCY =           0.00     PERCENT DISCREPANCY =           0.00






         TIME SUMMARY AT END OF TIME STEP    1 IN STRESS PERIOD  263
                    SECONDS     MINUTES      HOURS       DAYS        YEARS
                    -----------------------------------------------------------
   TIME STEP LENGTH  86400.      1440.0      24.000      1.0000     2.73785E-03
 STRESS PERIOD TIME  86400.      1440.0      24.000      1.0000     2.73785E-03
         TOTAL TIME 2.27232E+07 3.78720E+05  6312.0      263.00     0.72005    
1
1
                            STRESS PERIOD NO.  264, LENGTH =   1.000000    
                            -----------------------------------------------

                              NUMBER OF TIME STEPS =     1

                               MULTIPLIER FOR DELT =     1.000

                            INITIAL TIME STEP SIZE =   1.000000    

 REUSING NON-PARAMETER RIVER REACHES FROM LAST STRESS PERIOD

      2 RIVER REACHES

                 RECHARGE = -9.000000E-04
 
 SOLVING FOR HEAD 

 OUTPUT CONTROL FOR STRESS PERIOD  264   TIME STEP    1
    SAVE HEAD FOR ALL LAYERS

 HEAD WILL BE SAVED ON UNIT   51 AT END OF TIME STEP    1, STRESS PERIOD  264
1
  VOLUMETRIC BUDGET FOR ENTIRE MODEL AT END OF TIME STEP    1, STRESS PERIOD 264
  ------------------------------------------------------------------------------

     CUMULATIVE VOLUMES      L**3       RATES FOR THIS TIME STEP      L**3/T
     ------------------                 ------------------------

           IN:                                      IN:
           ---                                      ---
             STORAGE =        4700.0107               STORAGE =          16.8088
       CONSTANT HEAD =           0.0000         CONSTANT HEAD =           0.0000
       RIVER LEAKAGE =         404.9913         RIVER LEAKAGE =           0.0000
            RECHARGE =        4758.0000              RECHARGE =           0.0000

            TOTAL IN =        9863.0020              TOTAL IN =          16.8088

          OUT:                                     OUT:
          ----                                     ----
             STORAGE =        4247.4038               STORAGE =           0.1559
       CONSTANT HEAD =         840.8789         CONSTANT HEAD =           2.8399
       RIVER LEAKAGE =         794.2182         RIVER LEAKAGE =           4.8132
            RECHARGE =        3980.5000              RECHARGE =           9.0000

           TOTAL OUT =        9863.0010             TOTAL OUT =          16.8090

            IN - OUT =       9.7656E-04              IN - OUT =      -1.8692E-04

 PERCENT DISCREPANCY =           0.00     PERCENT DISCREPANCY =          -0.00






         TIME SUMMARY AT END OF TIME STEP    1 IN STRESS PERIOD  264
                    SECONDS     MINUTES      HOURS       DAYS        YEARS
                    -----------------------------------------------------------
   TIME STEP LENGTH  86400.      1440.0      24.000      1.0000     2.73785E-03
 STRESS PERIOD TIME  86400.      1440.0      24.000      1.0000     2.73785E-03
         TOTAL TIME 2.28096E+07 3.80160E+05  6336.0      264.00     0.72279    
1
1
                            STRESS PERIOD NO.  265, LENGTH =   1.000000    
                            -----------------------------------------------

                              NUMBER OF TIME STEPS =     1

                               MULTIPLIER FOR DELT =     1.000

                            INITIAL TIME STEP SIZE =   1.000000    

 REUSING NON-PARAMETER RIVER REACHES FROM LAST STRESS PERIOD

      2 RIVER REACHES

                 RECHARGE = -1.575000E-03
 
 SOLVING FOR HEAD 

 OUTPUT CONTROL FOR STRESS PERIOD  265   TIME STEP    1
    SAVE HEAD FOR ALL LAYERS

 HEAD WILL BE SAVED ON UNIT   51 AT END OF TIME STEP    1, STRESS PERIOD  265
1
  VOLUMETRIC BUDGET FOR ENTIRE MODEL AT END OF TIME STEP    1, STRESS PERIOD 265
  ------------------------------------------------------------------------------

     CUMULATIVE VOLUMES      L**3       RATES FOR THIS TIME STEP      L**3/T
     ------------------                 ------------------------

           IN:                                      IN:
           ---                                      ---
             STORAGE =        4722.3740               STORAGE =          22.3630
       CONSTANT HEAD =           0.0000         CONSTANT HEAD =           0.0000
       RIVER LEAKAGE =         404.9913         RIVER LEAKAGE =           0.0000
            RECHARGE =        4758.0000              RECHARGE =           0.0000

            TOTAL IN =        9885.3652              TOTAL IN =          22.3630

          OUT:                                     OUT:
          ----                                     ----
             STORAGE =        4247.5430               STORAGE =           0.1391
       CONSTANT HEAD =         843.7205         CONSTANT HEAD =           2.8416
       RIVER LEAKAGE =         797.8506         RIVER LEAKAGE =           3.6324
            RECHARGE =        3996.2500              RECHARGE =          15.7500

           TOTAL OUT =        9885.3643             TOTAL OUT =          22.3631

            IN - OUT =       9.7656E-04              IN - OUT =      -7.0572E-05

 PERCENT DISCREPANCY =           0.00     PERCENT DISCREPANCY =          -0.00






         TIME SUMMARY AT END OF TIME STEP    1 IN STRESS PERIOD  265
                    SECONDS     MINUTES      HOURS       DAYS        YEARS
                    -----------------------------------------------------------
   TIME STEP LENGTH  86400.      1440.0      24.000      1.0000     2.73785E-03
 STRESS PERIOD TIME  86400.      1440.0      24.000      1.0000     2.73785E-03
         TOTAL TIME 2.28960E+07 3.81600E+05  6360.0      265.00     0.72553    
1
1
                            STRESS PERIOD NO.  266, LENGTH =   1.000000    
                            -----------------------------------------------

                              NUMBER OF TIME STEPS =     1

                               MULTIPLIER FOR DELT =     1.000

                            INITIAL TIME STEP SIZE =   1.000000    

 REUSING NON-PARAMETER RIVER REACHES FROM LAST STRESS PERIOD

      2 RIVER REACHES

                 RECHARGE = -7.000000E-04
 
 SOLVING FOR HEAD 

 OUTPUT CONTROL FOR STRESS PERIOD  266   TIME STEP    1
    SAVE HEAD FOR ALL LAYERS

 HEAD WILL BE SAVED ON UNIT   51 AT END OF TIME STEP    1, STRESS PERIOD  266
1
  VOLUMETRIC BUDGET FOR ENTIRE MODEL AT END OF TIME STEP    1, STRESS PERIOD 266
  ------------------------------------------------------------------------------

     CUMULATIVE VOLUMES      L**3       RATES FOR THIS TIME STEP      L**3/T
     ------------------                 ------------------------

           IN:                                      IN:
           ---                                      ---
             STORAGE =        4735.4272               STORAGE =          13.0531
       CONSTANT HEAD =           0.0000         CONSTANT HEAD =           0.0000
       RIVER LEAKAGE =         404.9913         RIVER LEAKAGE =           0.0000
            RECHARGE =        4758.0000              RECHARGE =           0.0000

            TOTAL IN =        9898.4180              TOTAL IN =          13.0531

          OUT:                                     OUT:
          ----                                     ----
             STORAGE =        4247.6719               STORAGE =           0.1289
       CONSTANT HEAD =         846.5637         CONSTANT HEAD =           2.8431
       RIVER LEAKAGE =         800.9318         RIVER LEAKAGE =           3.0812
            RECHARGE =        4003.2500              RECHARGE =           7.0000

           TOTAL OUT =        9898.4170             TOTAL OUT =          13.0531

            IN - OUT =       9.7656E-04              IN - OUT =      -8.2016E-05

 PERCENT DISCREPANCY =           0.00     PERCENT DISCREPANCY =          -0.00






         TIME SUMMARY AT END OF TIME STEP    1 IN STRESS PERIOD  266
                    SECONDS     MINUTES      HOURS       DAYS        YEARS
                    -----------------------------------------------------------
   TIME STEP LENGTH  86400.      1440.0      24.000      1.0000     2.73785E-03
 STRESS PERIOD TIME  86400.      1440.0      24.000      1.0000     2.73785E-03
         TOTAL TIME 2.29824E+07 3.83040E+05  6384.0      266.00     0.72827    
1
1
                            STRESS PERIOD NO.  267, LENGTH =   1.000000    
                            -----------------------------------------------

                              NUMBER OF TIME STEPS =     1

                               MULTIPLIER FOR DELT =     1.000

                            INITIAL TIME STEP SIZE =   1.000000    

 REUSING NON-PARAMETER RIVER REACHES FROM LAST STRESS PERIOD

      2 RIVER REACHES

                 RECHARGE = -2.000000E-03
 
 SOLVING FOR HEAD 

 OUTPUT CONTROL FOR STRESS PERIOD  267   TIME STEP    1
    SAVE HEAD FOR ALL LAYERS

 HEAD WILL BE SAVED ON UNIT   51 AT END OF TIME STEP    1, STRESS PERIOD  267
1
  VOLUMETRIC BUDGET FOR ENTIRE MODEL AT END OF TIME STEP    1, STRESS PERIOD 267
  ------------------------------------------------------------------------------

     CUMULATIVE VOLUMES      L**3       RATES FOR THIS TIME STEP      L**3/T
     ------------------                 ------------------------

           IN:                                      IN:
           ---                                      ---
             STORAGE =        4760.5195               STORAGE =          25.0921
       CONSTANT HEAD =           0.0000         CONSTANT HEAD =           0.0000
       RIVER LEAKAGE =         404.9913         RIVER LEAKAGE =           0.0000
            RECHARGE =        4758.0000              RECHARGE =           0.0000

            TOTAL IN =        9923.5107              TOTAL IN =          25.0921

          OUT:                                     OUT:
          ----                                     ----
             STORAGE =        4247.7832               STORAGE =           0.1113
       CONSTANT HEAD =         849.4075         CONSTANT HEAD =           2.8439
       RIVER LEAKAGE =         803.0687         RIVER LEAKAGE =           2.1370
            RECHARGE =        4023.2500              RECHARGE =          20.0000

           TOTAL OUT =        9923.5098             TOTAL OUT =          25.0922

            IN - OUT =       9.7656E-04              IN - OUT =      -2.4796E-05

 PERCENT DISCREPANCY =           0.00     PERCENT DISCREPANCY =          -0.00






         TIME SUMMARY AT END OF TIME STEP    1 IN STRESS PERIOD  267
                    SECONDS     MINUTES      HOURS       DAYS        YEARS
                    -----------------------------------------------------------
   TIME STEP LENGTH  86400.      1440.0      24.000      1.0000     2.73785E-03
 STRESS PERIOD TIME  86400.      1440.0      24.000      1.0000     2.73785E-03
         TOTAL TIME 2.30688E+07 3.84480E+05  6408.0      267.00     0.73101    
1
1
                            STRESS PERIOD NO.  268, LENGTH =   1.000000    
                            -----------------------------------------------

                              NUMBER OF TIME STEPS =     1

                               MULTIPLIER FOR DELT =     1.000

                            INITIAL TIME STEP SIZE =   1.000000    

 REUSING NON-PARAMETER RIVER REACHES FROM LAST STRESS PERIOD

      2 RIVER REACHES

                 RECHARGE = -4.000000E-04
 
 SOLVING FOR HEAD 

 OUTPUT CONTROL FOR STRESS PERIOD  268   TIME STEP    1
    SAVE HEAD FOR ALL LAYERS

 HEAD WILL BE SAVED ON UNIT   51 AT END OF TIME STEP    1, STRESS PERIOD  268
1
  VOLUMETRIC BUDGET FOR ENTIRE MODEL AT END OF TIME STEP    1, STRESS PERIOD 268
  ------------------------------------------------------------------------------

     CUMULATIVE VOLUMES      L**3       RATES FOR THIS TIME STEP      L**3/T
     ------------------                 ------------------------

           IN:                                      IN:
           ---                                      ---
             STORAGE =        4769.4644               STORAGE =           8.9448
       CONSTANT HEAD =           0.0000         CONSTANT HEAD =           0.0000
       RIVER LEAKAGE =         404.9913         RIVER LEAKAGE =           0.0000
            RECHARGE =        4758.0000              RECHARGE =           0.0000

            TOTAL IN =        9932.4551              TOTAL IN =           8.9448

          OUT:                                     OUT:
          ----                                     ----
             STORAGE =        4247.8877               STORAGE =           0.1044
       CONSTANT HEAD =         852.2523         CONSTANT HEAD =           2.8447
       RIVER LEAKAGE =         805.0643         RIVER LEAKAGE =           1.9955
            RECHARGE =        4027.2500              RECHARGE =           4.0000

           TOTAL OUT =        9932.4551             TOTAL OUT =           8.9447

            IN - OUT =           0.0000              IN - OUT =       1.9073E-04

 PERCENT DISCREPANCY =           0.00     PERCENT DISCREPANCY =           0.00






         TIME SUMMARY AT END OF TIME STEP    1 IN STRESS PERIOD  268
                    SECONDS     MINUTES      HOURS       DAYS        YEARS
                    -----------------------------------------------------------
   TIME STEP LENGTH  86400.      1440.0      24.000      1.0000     2.73785E-03
 STRESS PERIOD TIME  86400.      1440.0      24.000      1.0000     2.73785E-03
         TOTAL TIME 2.31552E+07 3.85920E+05  6432.0      268.00     0.73374    
1
1
                            STRESS PERIOD NO.  269, LENGTH =   1.000000    
                            -----------------------------------------------

                              NUMBER OF TIME STEPS =     1

                               MULTIPLIER FOR DELT =     1.000

                            INITIAL TIME STEP SIZE =   1.000000    

 REUSING NON-PARAMETER RIVER REACHES FROM LAST STRESS PERIOD

      2 RIVER REACHES

                 RECHARGE = -2.100000E-03
 
 SOLVING FOR HEAD 

 OUTPUT CONTROL FOR STRESS PERIOD  269   TIME STEP    1
    SAVE HEAD FOR ALL LAYERS

 HEAD WILL BE SAVED ON UNIT   51 AT END OF TIME STEP    1, STRESS PERIOD  269
1
  VOLUMETRIC BUDGET FOR ENTIRE MODEL AT END OF TIME STEP    1, STRESS PERIOD 269
  ------------------------------------------------------------------------------

     CUMULATIVE VOLUMES      L**3       RATES FOR THIS TIME STEP      L**3/T
     ------------------                 ------------------------

           IN:                                      IN:
           ---                                      ---
             STORAGE =        4794.5679               STORAGE =          25.1035
       CONSTANT HEAD =           0.0000         CONSTANT HEAD =           0.0000
       RIVER LEAKAGE =         404.9913         RIVER LEAKAGE =           0.0000
            RECHARGE =        4758.0000              RECHARGE =           0.0000

            TOTAL IN =        9957.5586              TOTAL IN =          25.1035

          OUT:                                     OUT:
          ----                                     ----
             STORAGE =        4247.9751               STORAGE =       8.7484E-02
       CONSTANT HEAD =         855.0971         CONSTANT HEAD =           2.8449
       RIVER LEAKAGE =         806.2355         RIVER LEAKAGE =           1.1712
            RECHARGE =        4048.2500              RECHARGE =          21.0000

           TOTAL OUT =        9957.5576             TOTAL OUT =          25.1035

            IN - OUT =       9.7656E-04              IN - OUT =      -7.2479E-05

 PERCENT DISCREPANCY =           0.00     PERCENT DISCREPANCY =          -0.00






         TIME SUMMARY AT END OF TIME STEP    1 IN STRESS PERIOD  269
                    SECONDS     MINUTES      HOURS       DAYS        YEARS
                    -----------------------------------------------------------
   TIME STEP LENGTH  86400.      1440.0      24.000      1.0000     2.73785E-03
 STRESS PERIOD TIME  86400.      1440.0      24.000      1.0000     2.73785E-03
         TOTAL TIME 2.32416E+07 3.87360E+05  6456.0      269.00     0.73648    
1
1
                            STRESS PERIOD NO.  270, LENGTH =   1.000000    
                            -----------------------------------------------

                              NUMBER OF TIME STEPS =     1

                               MULTIPLIER FOR DELT =     1.000

                            INITIAL TIME STEP SIZE =   1.000000    

 REUSING NON-PARAMETER RIVER REACHES FROM LAST STRESS PERIOD

      2 RIVER REACHES

                 RECHARGE = -2.200000E-03
 
 SOLVING FOR HEAD 

 OUTPUT CONTROL FOR STRESS PERIOD  270   TIME STEP    1
    SAVE HEAD FOR ALL LAYERS

 HEAD WILL BE SAVED ON UNIT   51 AT END OF TIME STEP    1, STRESS PERIOD  270
1
  VOLUMETRIC BUDGET FOR ENTIRE MODEL AT END OF TIME STEP    1, STRESS PERIOD 270
  ------------------------------------------------------------------------------

     CUMULATIVE VOLUMES      L**3       RATES FOR THIS TIME STEP      L**3/T
     ------------------                 ------------------------

           IN:                                      IN:
           ---                                      ---
             STORAGE =        4820.0205               STORAGE =          25.4527
       CONSTANT HEAD =           0.0000         CONSTANT HEAD =           0.0000
       RIVER LEAKAGE =         404.9913         RIVER LEAKAGE =           0.0000
            RECHARGE =        4758.0000              RECHARGE =           0.0000

            TOTAL IN =        9983.0117              TOTAL IN =          25.4527

          OUT:                                     OUT:
          ----                                     ----
             STORAGE =        4248.0459               STORAGE =       7.0851E-02
       CONSTANT HEAD =         857.9417         CONSTANT HEAD =           2.8446
       RIVER LEAKAGE =         806.7729         RIVER LEAKAGE =           0.5375
            RECHARGE =        4070.2500              RECHARGE =          22.0000

           TOTAL OUT =        9983.0107             TOTAL OUT =          25.4529

            IN - OUT =       9.7656E-04              IN - OUT =      -1.8883E-04

 PERCENT DISCREPANCY =           0.00     PERCENT DISCREPANCY =          -0.00






         TIME SUMMARY AT END OF TIME STEP    1 IN STRESS PERIOD  270
                    SECONDS     MINUTES      HOURS       DAYS        YEARS
                    -----------------------------------------------------------
   TIME STEP LENGTH  86400.      1440.0      24.000      1.0000     2.73785E-03
 STRESS PERIOD TIME  86400.      1440.0      24.000      1.0000     2.73785E-03
         TOTAL TIME 2.33280E+07 3.88800E+05  6480.0      270.00     0.73922    
1
1
                            STRESS PERIOD NO.  271, LENGTH =   1.000000    
                            -----------------------------------------------

                              NUMBER OF TIME STEPS =     1

                               MULTIPLIER FOR DELT =     1.000

                            INITIAL TIME STEP SIZE =   1.000000    

 REUSING NON-PARAMETER RIVER REACHES FROM LAST STRESS PERIOD

      2 RIVER REACHES

                 RECHARGE = -1.200000E-03
 
 SOLVING FOR HEAD 

 OUTPUT CONTROL FOR STRESS PERIOD  271   TIME STEP    1
    SAVE HEAD FOR ALL LAYERS

 HEAD WILL BE SAVED ON UNIT   51 AT END OF TIME STEP    1, STRESS PERIOD  271
1
  VOLUMETRIC BUDGET FOR ENTIRE MODEL AT END OF TIME STEP    1, STRESS PERIOD 271
  ------------------------------------------------------------------------------

     CUMULATIVE VOLUMES      L**3       RATES FOR THIS TIME STEP      L**3/T
     ------------------                 ------------------------

           IN:                                      IN:
           ---                                      ---
             STORAGE =        4835.2915               STORAGE =          15.2708
       CONSTANT HEAD =           0.0000         CONSTANT HEAD =           0.0000
       RIVER LEAKAGE =         404.9913         RIVER LEAKAGE =           0.0000
            RECHARGE =        4758.0000              RECHARGE =           0.0000

            TOTAL IN =        9998.2832              TOTAL IN =          15.2708

          OUT:                                     OUT:
          ----                                     ----
             STORAGE =        4248.1069               STORAGE =       6.0961E-02
       CONSTANT HEAD =         860.7860         CONSTANT HEAD =           2.8443
       RIVER LEAKAGE =         807.1384         RIVER LEAKAGE =           0.3655
            RECHARGE =        4082.2500              RECHARGE =          12.0000

           TOTAL OUT =        9998.2812             TOTAL OUT =          15.2708

            IN - OUT =       1.9531E-03              IN - OUT =       7.0572E-05

 PERCENT DISCREPANCY =           0.00     PERCENT DISCREPANCY =           0.00






         TIME SUMMARY AT END OF TIME STEP    1 IN STRESS PERIOD  271
                    SECONDS     MINUTES      HOURS       DAYS        YEARS
                    -----------------------------------------------------------
   TIME STEP LENGTH  86400.      1440.0      24.000      1.0000     2.73785E-03
 STRESS PERIOD TIME  86400.      1440.0      24.000      1.0000     2.73785E-03
         TOTAL TIME 2.34144E+07 3.90240E+05  6504.0      271.00     0.74196    
1
1
                            STRESS PERIOD NO.  272, LENGTH =   1.000000    
                            -----------------------------------------------

                              NUMBER OF TIME STEPS =     1

                               MULTIPLIER FOR DELT =     1.000

                            INITIAL TIME STEP SIZE =   1.000000    

 REUSING NON-PARAMETER RIVER REACHES FROM LAST STRESS PERIOD

      2 RIVER REACHES

                 RECHARGE = -1.300000E-03
 
 SOLVING FOR HEAD 

 OUTPUT CONTROL FOR STRESS PERIOD  272   TIME STEP    1
    SAVE HEAD FOR ALL LAYERS

 HEAD WILL BE SAVED ON UNIT   51 AT END OF TIME STEP    1, STRESS PERIOD  272
1
  VOLUMETRIC BUDGET FOR ENTIRE MODEL AT END OF TIME STEP    1, STRESS PERIOD 272
  ------------------------------------------------------------------------------

     CUMULATIVE VOLUMES      L**3       RATES FOR THIS TIME STEP      L**3/T
     ------------------                 ------------------------

           IN:                                      IN:
           ---                                      ---
             STORAGE =        4851.2812               STORAGE =          15.9898
       CONSTANT HEAD =           0.0000         CONSTANT HEAD =           0.0000
       RIVER LEAKAGE =         404.9913         RIVER LEAKAGE =           0.0000
            RECHARGE =        4758.0000              RECHARGE =           0.0000

            TOTAL IN =       10014.2725              TOTAL IN =          15.9898

          OUT:                                     OUT:
          ----                                     ----
             STORAGE =        4248.1582               STORAGE =       5.1093E-02
       CONSTANT HEAD =         863.6299         CONSTANT HEAD =           2.8439
       RIVER LEAKAGE =         807.2332         RIVER LEAKAGE =       9.4771E-02
            RECHARGE =        4095.2500              RECHARGE =          13.0000

           TOTAL OUT =       10014.2715             TOTAL OUT =          15.9898

            IN - OUT =       9.7656E-04              IN - OUT =      -7.6294E-06

 PERCENT DISCREPANCY =           0.00     PERCENT DISCREPANCY =          -0.00






         TIME SUMMARY AT END OF TIME STEP    1 IN STRESS PERIOD  272
                    SECONDS     MINUTES      HOURS       DAYS        YEARS
                    -----------------------------------------------------------
   TIME STEP LENGTH  86400.      1440.0      24.000      1.0000     2.73785E-03
 STRESS PERIOD TIME  86400.      1440.0      24.000      1.0000     2.73785E-03
         TOTAL TIME 2.35008E+07 3.91680E+05  6528.0      272.00     0.74470    
1
1
                            STRESS PERIOD NO.  273, LENGTH =   1.000000    
                            -----------------------------------------------

                              NUMBER OF TIME STEPS =     1

                               MULTIPLIER FOR DELT =     1.000

                            INITIAL TIME STEP SIZE =   1.000000    

 REUSING NON-PARAMETER RIVER REACHES FROM LAST STRESS PERIOD

      2 RIVER REACHES

                 RECHARGE = -1.800000E-03
 
 SOLVING FOR HEAD 

 OUTPUT CONTROL FOR STRESS PERIOD  273   TIME STEP    1
    SAVE HEAD FOR ALL LAYERS

 HEAD WILL BE SAVED ON UNIT   51 AT END OF TIME STEP    1, STRESS PERIOD  273
1
  VOLUMETRIC BUDGET FOR ENTIRE MODEL AT END OF TIME STEP    1, STRESS PERIOD 273
  ------------------------------------------------------------------------------

     CUMULATIVE VOLUMES      L**3       RATES FOR THIS TIME STEP      L**3/T
     ------------------                 ------------------------

           IN:                                      IN:
           ---                                      ---
             STORAGE =        4871.8262               STORAGE =          20.5448
       CONSTANT HEAD =           0.0000         CONSTANT HEAD =           0.0000
       RIVER LEAKAGE =         405.3293         RIVER LEAKAGE =           0.3379
            RECHARGE =        4758.0000              RECHARGE =           0.0000

            TOTAL IN =       10035.1553              TOTAL IN =          20.8827

          OUT:                                     OUT:
          ----                                     ----
             STORAGE =        4248.1978               STORAGE =       3.9400E-02
       CONSTANT HEAD =         866.4731         CONSTANT HEAD =           2.8432
       RIVER LEAKAGE =         807.2332         RIVER LEAKAGE =           0.0000
            RECHARGE =        4113.2500              RECHARGE =          18.0000

           TOTAL OUT =       10035.1543             TOTAL OUT =          20.8826

            IN - OUT =       9.7656E-04              IN - OUT =       1.7548E-04

 PERCENT DISCREPANCY =           0.00     PERCENT DISCREPANCY =           0.00






         TIME SUMMARY AT END OF TIME STEP    1 IN STRESS PERIOD  273
                    SECONDS     MINUTES      HOURS       DAYS        YEARS
                    -----------------------------------------------------------
   TIME STEP LENGTH  86400.      1440.0      24.000      1.0000     2.73785E-03
 STRESS PERIOD TIME  86400.      1440.0      24.000      1.0000     2.73785E-03
         TOTAL TIME 2.35872E+07 3.93120E+05  6552.0      273.00     0.74743    
1
1
                            STRESS PERIOD NO.  274, LENGTH =   1.000000    
                            -----------------------------------------------

                              NUMBER OF TIME STEPS =     1

                               MULTIPLIER FOR DELT =     1.000

                            INITIAL TIME STEP SIZE =   1.000000    

 REUSING NON-PARAMETER RIVER REACHES FROM LAST STRESS PERIOD

      2 RIVER REACHES

                 RECHARGE =   0.00000    
 
 SOLVING FOR HEAD 

 OUTPUT CONTROL FOR STRESS PERIOD  274   TIME STEP    1
    SAVE HEAD FOR ALL LAYERS

 HEAD WILL BE SAVED ON UNIT   51 AT END OF TIME STEP    1, STRESS PERIOD  274
1
  VOLUMETRIC BUDGET FOR ENTIRE MODEL AT END OF TIME STEP    1, STRESS PERIOD 274
  ------------------------------------------------------------------------------

     CUMULATIVE VOLUMES      L**3       RATES FOR THIS TIME STEP      L**3/T
     ------------------                 ------------------------

           IN:                                      IN:
           ---                                      ---
             STORAGE =        4874.9004               STORAGE =           3.0744
       CONSTANT HEAD =           0.0000         CONSTANT HEAD =           0.0000
       RIVER LEAKAGE =         405.3913         RIVER LEAKAGE =       6.2004E-02
            RECHARGE =        4758.0000              RECHARGE =           0.0000

            TOTAL IN =       10038.2910              TOTAL IN =           3.1364

          OUT:                                     OUT:
          ----                                     ----
             STORAGE =        4248.4912               STORAGE =           0.2936
       CONSTANT HEAD =         869.3159         CONSTANT HEAD =           2.8428
       RIVER LEAKAGE =         807.2332         RIVER LEAKAGE =           0.0000
            RECHARGE =        4113.2500              RECHARGE =           0.0000

           TOTAL OUT =       10038.2910             TOTAL OUT =           3.1364

            IN - OUT =           0.0000              IN - OUT =      -1.6212E-05

 PERCENT DISCREPANCY =           0.00     PERCENT DISCREPANCY =          -0.00






         TIME SUMMARY AT END OF TIME STEP    1 IN STRESS PERIOD  274
                    SECONDS     MINUTES      HOURS       DAYS        YEARS
                    -----------------------------------------------------------
   TIME STEP LENGTH  86400.      1440.0      24.000      1.0000     2.73785E-03
 STRESS PERIOD TIME  86400.      1440.0      24.000      1.0000     2.73785E-03
         TOTAL TIME 2.36736E+07 3.94560E+05  6576.0      274.00     0.75017    
1
1
                            STRESS PERIOD NO.  275, LENGTH =   1.000000    
                            -----------------------------------------------

                              NUMBER OF TIME STEPS =     1

                               MULTIPLIER FOR DELT =     1.000

                            INITIAL TIME STEP SIZE =   1.000000    

 REUSING NON-PARAMETER RIVER REACHES FROM LAST STRESS PERIOD

      2 RIVER REACHES

                 RECHARGE =  1.480000E-02
 
 SOLVING FOR HEAD 

 OUTPUT CONTROL FOR STRESS PERIOD  275   TIME STEP    1
    SAVE HEAD FOR ALL LAYERS

 HEAD WILL BE SAVED ON UNIT   51 AT END OF TIME STEP    1, STRESS PERIOD  275
1
  VOLUMETRIC BUDGET FOR ENTIRE MODEL AT END OF TIME STEP    1, STRESS PERIOD 275
  ------------------------------------------------------------------------------

     CUMULATIVE VOLUMES      L**3       RATES FOR THIS TIME STEP      L**3/T
     ------------------                 ------------------------

           IN:                                      IN:
           ---                                      ---
             STORAGE =        4874.9004               STORAGE =           0.0000
       CONSTANT HEAD =           0.0000         CONSTANT HEAD =           0.0000
       RIVER LEAKAGE =         405.3913         RIVER LEAKAGE =           0.0000
            RECHARGE =        4906.0000              RECHARGE =         148.0000

            TOTAL IN =       10186.2910              TOTAL IN =         148.0000

          OUT:                                     OUT:
          ----                                     ----
             STORAGE =        4388.4565               STORAGE =         139.9651
       CONSTANT HEAD =         872.1637         CONSTANT HEAD =           2.8478
       RIVER LEAKAGE =         812.4203         RIVER LEAKAGE =           5.1871
            RECHARGE =        4113.2500              RECHARGE =           0.0000

           TOTAL OUT =       10186.2910             TOTAL OUT =         148.0000

            IN - OUT =           0.0000              IN - OUT =           0.0000

 PERCENT DISCREPANCY =           0.00     PERCENT DISCREPANCY =           0.00






         TIME SUMMARY AT END OF TIME STEP    1 IN STRESS PERIOD  275
                    SECONDS     MINUTES      HOURS       DAYS        YEARS
                    -----------------------------------------------------------
   TIME STEP LENGTH  86400.      1440.0      24.000      1.0000     2.73785E-03
 STRESS PERIOD TIME  86400.      1440.0      24.000      1.0000     2.73785E-03
         TOTAL TIME 2.37600E+07 3.96000E+05  6600.0      275.00     0.75291    
1
1
                            STRESS PERIOD NO.  276, LENGTH =   1.000000    
                            -----------------------------------------------

                              NUMBER OF TIME STEPS =     1

                               MULTIPLIER FOR DELT =     1.000

                            INITIAL TIME STEP SIZE =   1.000000    

 REUSING NON-PARAMETER RIVER REACHES FROM LAST STRESS PERIOD

      2 RIVER REACHES

                 RECHARGE =  1.900000E-03
 
 SOLVING FOR HEAD 

 OUTPUT CONTROL FOR STRESS PERIOD  276   TIME STEP    1
    SAVE HEAD FOR ALL LAYERS

 HEAD WILL BE SAVED ON UNIT   51 AT END OF TIME STEP    1, STRESS PERIOD  276
1
  VOLUMETRIC BUDGET FOR ENTIRE MODEL AT END OF TIME STEP    1, STRESS PERIOD 276
  ------------------------------------------------------------------------------

     CUMULATIVE VOLUMES      L**3       RATES FOR THIS TIME STEP      L**3/T
     ------------------                 ------------------------

           IN:                                      IN:
           ---                                      ---
             STORAGE =        4875.8042               STORAGE =           0.9039
       CONSTANT HEAD =           0.0000         CONSTANT HEAD =           0.0000
       RIVER LEAKAGE =         405.3913         RIVER LEAKAGE =           0.0000
            RECHARGE =        4925.0000              RECHARGE =          19.0000

            TOTAL IN =       10206.1953              TOTAL IN =          19.9039

          OUT:                                     OUT:
          ----                                     ----
             STORAGE =        4401.5908               STORAGE =          13.1344
       CONSTANT HEAD =         875.0142         CONSTANT HEAD =           2.8505
       RIVER LEAKAGE =         816.3394         RIVER LEAKAGE =           3.9191
            RECHARGE =        4113.2500              RECHARGE =           0.0000

           TOTAL OUT =       10206.1943             TOTAL OUT =          19.9040

            IN - OUT =       9.7656E-04              IN - OUT =      -8.2016E-05

 PERCENT DISCREPANCY =           0.00     PERCENT DISCREPANCY =          -0.00






         TIME SUMMARY AT END OF TIME STEP    1 IN STRESS PERIOD  276
                    SECONDS     MINUTES      HOURS       DAYS        YEARS
                    -----------------------------------------------------------
   TIME STEP LENGTH  86400.      1440.0      24.000      1.0000     2.73785E-03
 STRESS PERIOD TIME  86400.      1440.0      24.000      1.0000     2.73785E-03
         TOTAL TIME 2.38464E+07 3.97440E+05  6624.0      276.00     0.75565    
1
1
                            STRESS PERIOD NO.  277, LENGTH =   1.000000    
                            -----------------------------------------------

                              NUMBER OF TIME STEPS =     1

                               MULTIPLIER FOR DELT =     1.000

                            INITIAL TIME STEP SIZE =   1.000000    

 REUSING NON-PARAMETER RIVER REACHES FROM LAST STRESS PERIOD

      2 RIVER REACHES

                 RECHARGE = -1.175000E-03
 
 SOLVING FOR HEAD 

 OUTPUT CONTROL FOR STRESS PERIOD  277   TIME STEP    1
    SAVE HEAD FOR ALL LAYERS

 HEAD WILL BE SAVED ON UNIT   51 AT END OF TIME STEP    1, STRESS PERIOD  277
1
  VOLUMETRIC BUDGET FOR ENTIRE MODEL AT END OF TIME STEP    1, STRESS PERIOD 277
  ------------------------------------------------------------------------------

     CUMULATIVE VOLUMES      L**3       RATES FOR THIS TIME STEP      L**3/T
     ------------------                 ------------------------

           IN:                                      IN:
           ---                                      ---
             STORAGE =        4893.0435               STORAGE =          17.2390
       CONSTANT HEAD =           0.0000         CONSTANT HEAD =           0.0000
       RIVER LEAKAGE =         405.3913         RIVER LEAKAGE =           0.0000
            RECHARGE =        4925.0000              RECHARGE =           0.0000

            TOTAL IN =       10223.4346              TOTAL IN =          17.2390

          OUT:                                     OUT:
          ----                                     ----
             STORAGE =        4401.7070               STORAGE =           0.1164
       CONSTANT HEAD =         877.8661         CONSTANT HEAD =           2.8519
       RIVER LEAKAGE =         818.8599         RIVER LEAKAGE =           2.5205
            RECHARGE =        4125.0000              RECHARGE =          11.7500

           TOTAL OUT =       10223.4336             TOTAL OUT =          17.2388

            IN - OUT =       9.7656E-04              IN - OUT =       2.0981E-04

 PERCENT DISCREPANCY =           0.00     PERCENT DISCREPANCY =           0.00






         TIME SUMMARY AT END OF TIME STEP    1 IN STRESS PERIOD  277
                    SECONDS     MINUTES      HOURS       DAYS        YEARS
                    -----------------------------------------------------------
   TIME STEP LENGTH  86400.      1440.0      24.000      1.0000     2.73785E-03
 STRESS PERIOD TIME  86400.      1440.0      24.000      1.0000     2.73785E-03
         TOTAL TIME 2.39328E+07 3.98880E+05  6648.0      277.00     0.75838    
1
1
                            STRESS PERIOD NO.  278, LENGTH =   1.000000    
                            -----------------------------------------------

                              NUMBER OF TIME STEPS =     1

                               MULTIPLIER FOR DELT =     1.000

                            INITIAL TIME STEP SIZE =   1.000000    

 REUSING NON-PARAMETER RIVER REACHES FROM LAST STRESS PERIOD

      2 RIVER REACHES

                 RECHARGE = -5.000000E-04
 
 SOLVING FOR HEAD 

 OUTPUT CONTROL FOR STRESS PERIOD  278   TIME STEP    1
    SAVE HEAD FOR ALL LAYERS

 HEAD WILL BE SAVED ON UNIT   51 AT END OF TIME STEP    1, STRESS PERIOD  278
1
  VOLUMETRIC BUDGET FOR ENTIRE MODEL AT END OF TIME STEP    1, STRESS PERIOD 278
  ------------------------------------------------------------------------------

     CUMULATIVE VOLUMES      L**3       RATES FOR THIS TIME STEP      L**3/T
     ------------------                 ------------------------

           IN:                                      IN:
           ---                                      ---
             STORAGE =        4902.9961               STORAGE =           9.9527
       CONSTANT HEAD =           0.0000         CONSTANT HEAD =           0.0000
       RIVER LEAKAGE =         405.3913         RIVER LEAKAGE =           0.0000
            RECHARGE =        4925.0000              RECHARGE =           0.0000

            TOTAL IN =       10233.3867              TOTAL IN =           9.9527

          OUT:                                     OUT:
          ----                                     ----
             STORAGE =        4401.8159               STORAGE =           0.1086
       CONSTANT HEAD =         880.7191         CONSTANT HEAD =           2.8530
       RIVER LEAKAGE =         820.8508         RIVER LEAKAGE =           1.9910
            RECHARGE =        4130.0000              RECHARGE =           5.0000

           TOTAL OUT =       10233.3857             TOTAL OUT =           9.9526

            IN - OUT =       9.7656E-04              IN - OUT =       1.3828E-04

 PERCENT DISCREPANCY =           0.00     PERCENT DISCREPANCY =           0.00






         TIME SUMMARY AT END OF TIME STEP    1 IN STRESS PERIOD  278
                    SECONDS     MINUTES      HOURS       DAYS        YEARS
                    -----------------------------------------------------------
   TIME STEP LENGTH  86400.      1440.0      24.000      1.0000     2.73785E-03
 STRESS PERIOD TIME  86400.      1440.0      24.000      1.0000     2.73785E-03
         TOTAL TIME 2.40192E+07 4.00320E+05  6672.0      278.00     0.76112    
1
1
                            STRESS PERIOD NO.  279, LENGTH =   1.000000    
                            -----------------------------------------------

                              NUMBER OF TIME STEPS =     1

                               MULTIPLIER FOR DELT =     1.000

                            INITIAL TIME STEP SIZE =   1.000000    

 REUSING NON-PARAMETER RIVER REACHES FROM LAST STRESS PERIOD

      2 RIVER REACHES

                 RECHARGE =  2.000000E-04
 
 SOLVING FOR HEAD 

 OUTPUT CONTROL FOR STRESS PERIOD  279   TIME STEP    1
    SAVE HEAD FOR ALL LAYERS

 HEAD WILL BE SAVED ON UNIT   51 AT END OF TIME STEP    1, STRESS PERIOD  279
1
  VOLUMETRIC BUDGET FOR ENTIRE MODEL AT END OF TIME STEP    1, STRESS PERIOD 279
  ------------------------------------------------------------------------------

     CUMULATIVE VOLUMES      L**3       RATES FOR THIS TIME STEP      L**3/T
     ------------------                 ------------------------

           IN:                                      IN:
           ---                                      ---
             STORAGE =        4906.0034               STORAGE =           3.0072
       CONSTANT HEAD =           0.0000         CONSTANT HEAD =           0.0000
       RIVER LEAKAGE =         405.3913         RIVER LEAKAGE =           0.0000
            RECHARGE =        4927.0000              RECHARGE =           2.0000

            TOTAL IN =       10238.3945              TOTAL IN =           5.0072

          OUT:                                     OUT:
          ----                                     ----
             STORAGE =        4402.1177               STORAGE =           0.3019
       CONSTANT HEAD =         883.5732         CONSTANT HEAD =           2.8541
       RIVER LEAKAGE =         822.7020         RIVER LEAKAGE =           1.8511
            RECHARGE =        4130.0000              RECHARGE =           0.0000

           TOTAL OUT =       10238.3926             TOTAL OUT =           5.0071

            IN - OUT =       1.9531E-03              IN - OUT =       1.2350E-04

 PERCENT DISCREPANCY =           0.00     PERCENT DISCREPANCY =           0.00






         TIME SUMMARY AT END OF TIME STEP    1 IN STRESS PERIOD  279
                    SECONDS     MINUTES      HOURS       DAYS        YEARS
                    -----------------------------------------------------------
   TIME STEP LENGTH  86400.      1440.0      24.000      1.0000     2.73785E-03
 STRESS PERIOD TIME  86400.      1440.0      24.000      1.0000     2.73785E-03
         TOTAL TIME 2.41056E+07 4.01760E+05  6696.0      279.00     0.76386    
1
1
                            STRESS PERIOD NO.  280, LENGTH =   1.000000    
                            -----------------------------------------------

                              NUMBER OF TIME STEPS =     1

                               MULTIPLIER FOR DELT =     1.000

                            INITIAL TIME STEP SIZE =   1.000000    

 REUSING NON-PARAMETER RIVER REACHES FROM LAST STRESS PERIOD

      2 RIVER REACHES

                 RECHARGE =  1.900000E-03
 
 SOLVING FOR HEAD 

 OUTPUT CONTROL FOR STRESS PERIOD  280   TIME STEP    1
    SAVE HEAD FOR ALL LAYERS

 HEAD WILL BE SAVED ON UNIT   51 AT END OF TIME STEP    1, STRESS PERIOD  280
1
  VOLUMETRIC BUDGET FOR ENTIRE MODEL AT END OF TIME STEP    1, STRESS PERIOD 280
  ------------------------------------------------------------------------------

     CUMULATIVE VOLUMES      L**3       RATES FOR THIS TIME STEP      L**3/T
     ------------------                 ------------------------

           IN:                                      IN:
           ---                                      ---
             STORAGE =        4906.0034               STORAGE =           0.0000
       CONSTANT HEAD =           0.0000         CONSTANT HEAD =           0.0000
       RIVER LEAKAGE =         405.3913         RIVER LEAKAGE =           0.0000
            RECHARGE =        4946.0000              RECHARGE =          19.0000

            TOTAL IN =       10257.3945              TOTAL IN =          19.0000

          OUT:                                     OUT:
          ----                                     ----
             STORAGE =        4415.9634               STORAGE =          13.8456
       CONSTANT HEAD =         886.4288         CONSTANT HEAD =           2.8557
       RIVER LEAKAGE =         825.0007         RIVER LEAKAGE =           2.2988
            RECHARGE =        4130.0000              RECHARGE =           0.0000

           TOTAL OUT =       10257.3926             TOTAL OUT =          19.0001

            IN - OUT =       1.9531E-03              IN - OUT =      -9.3460E-05

 PERCENT DISCREPANCY =           0.00     PERCENT DISCREPANCY =          -0.00






         TIME SUMMARY AT END OF TIME STEP    1 IN STRESS PERIOD  280
                    SECONDS     MINUTES      HOURS       DAYS        YEARS
                    -----------------------------------------------------------
   TIME STEP LENGTH  86400.      1440.0      24.000      1.0000     2.73785E-03
 STRESS PERIOD TIME  86400.      1440.0      24.000      1.0000     2.73785E-03
         TOTAL TIME 2.41920E+07 4.03200E+05  6720.0      280.00     0.76660    
1
1
                            STRESS PERIOD NO.  281, LENGTH =   1.000000    
                            -----------------------------------------------

                              NUMBER OF TIME STEPS =     1

                               MULTIPLIER FOR DELT =     1.000

                            INITIAL TIME STEP SIZE =   1.000000    

 REUSING NON-PARAMETER RIVER REACHES FROM LAST STRESS PERIOD

      2 RIVER REACHES

                 RECHARGE =  2.390000E-02
 
 SOLVING FOR HEAD 

 OUTPUT CONTROL FOR STRESS PERIOD  281   TIME STEP    1
    SAVE HEAD FOR ALL LAYERS

 HEAD WILL BE SAVED ON UNIT   51 AT END OF TIME STEP    1, STRESS PERIOD  281
1
  VOLUMETRIC BUDGET FOR ENTIRE MODEL AT END OF TIME STEP    1, STRESS PERIOD 281
  ------------------------------------------------------------------------------

     CUMULATIVE VOLUMES      L**3       RATES FOR THIS TIME STEP      L**3/T
     ------------------                 ------------------------

           IN:                                      IN:
           ---                                      ---
             STORAGE =        4906.0034               STORAGE =           0.0000
       CONSTANT HEAD =           0.0000         CONSTANT HEAD =           0.0000
       RIVER LEAKAGE =         405.3913         RIVER LEAKAGE =           0.0000
            RECHARGE =        5185.0000              RECHARGE =         239.0000

            TOTAL IN =       10496.3945              TOTAL IN =         239.0000

          OUT:                                     OUT:
          ----                                     ----
             STORAGE =        4641.8389               STORAGE =         225.8754
       CONSTANT HEAD =         889.2939         CONSTANT HEAD =           2.8651
       RIVER LEAKAGE =         835.2601         RIVER LEAKAGE =          10.2593
            RECHARGE =        4130.0000              RECHARGE =           0.0000

           TOTAL OUT =       10496.3926             TOTAL OUT =         238.9999

            IN - OUT =       1.9531E-03              IN - OUT =       1.2207E-04

 PERCENT DISCREPANCY =           0.00     PERCENT DISCREPANCY =           0.00






         TIME SUMMARY AT END OF TIME STEP    1 IN STRESS PERIOD  281
                    SECONDS     MINUTES      HOURS       DAYS        YEARS
                    -----------------------------------------------------------
   TIME STEP LENGTH  86400.      1440.0      24.000      1.0000     2.73785E-03
 STRESS PERIOD TIME  86400.      1440.0      24.000      1.0000     2.73785E-03
         TOTAL TIME 2.42784E+07 4.04640E+05  6744.0      281.00     0.76934    
1
1
                            STRESS PERIOD NO.  282, LENGTH =   1.000000    
                            -----------------------------------------------

                              NUMBER OF TIME STEPS =     1

                               MULTIPLIER FOR DELT =     1.000

                            INITIAL TIME STEP SIZE =   1.000000    

 REUSING NON-PARAMETER RIVER REACHES FROM LAST STRESS PERIOD

      2 RIVER REACHES

                 RECHARGE =  1.800000E-03
 
 SOLVING FOR HEAD 

 OUTPUT CONTROL FOR STRESS PERIOD  282   TIME STEP    1
    SAVE HEAD FOR ALL LAYERS

 HEAD WILL BE SAVED ON UNIT   51 AT END OF TIME STEP    1, STRESS PERIOD  282
1
  VOLUMETRIC BUDGET FOR ENTIRE MODEL AT END OF TIME STEP    1, STRESS PERIOD 282
  ------------------------------------------------------------------------------

     CUMULATIVE VOLUMES      L**3       RATES FOR THIS TIME STEP      L**3/T
     ------------------                 ------------------------

           IN:                                      IN:
           ---                                      ---
             STORAGE =        4909.4248               STORAGE =           3.4212
       CONSTANT HEAD =           0.0000         CONSTANT HEAD =           0.0000
       RIVER LEAKAGE =         405.3913         RIVER LEAKAGE =           0.0000
            RECHARGE =        5203.0000              RECHARGE =          18.0000

            TOTAL IN =       10517.8164              TOTAL IN =          21.4212

          OUT:                                     OUT:
          ----                                     ----
             STORAGE =        4652.8921               STORAGE =          11.0533
       CONSTANT HEAD =         892.1643         CONSTANT HEAD =           2.8704
       RIVER LEAKAGE =         842.7577         RIVER LEAKAGE =           7.4976
            RECHARGE =        4130.0000              RECHARGE =           0.0000

           TOTAL OUT =       10517.8145             TOTAL OUT =          21.4213

            IN - OUT =       1.9531E-03              IN - OUT =      -1.0109E-04

 PERCENT DISCREPANCY =           0.00     PERCENT DISCREPANCY =          -0.00






         TIME SUMMARY AT END OF TIME STEP    1 IN STRESS PERIOD  282
                    SECONDS     MINUTES      HOURS       DAYS        YEARS
                    -----------------------------------------------------------
   TIME STEP LENGTH  86400.      1440.0      24.000      1.0000     2.73785E-03
 STRESS PERIOD TIME  86400.      1440.0      24.000      1.0000     2.73785E-03
         TOTAL TIME 2.43648E+07 4.06080E+05  6768.0      282.00     0.77207    
1
1
                            STRESS PERIOD NO.  283, LENGTH =   1.000000    
                            -----------------------------------------------

                              NUMBER OF TIME STEPS =     1

                               MULTIPLIER FOR DELT =     1.000

                            INITIAL TIME STEP SIZE =   1.000000    

 REUSING NON-PARAMETER RIVER REACHES FROM LAST STRESS PERIOD

      2 RIVER REACHES

                 RECHARGE =  1.560000E-02
 
 SOLVING FOR HEAD 

 OUTPUT CONTROL FOR STRESS PERIOD  283   TIME STEP    1
    SAVE HEAD FOR ALL LAYERS

 HEAD WILL BE SAVED ON UNIT   51 AT END OF TIME STEP    1, STRESS PERIOD  283
1
  VOLUMETRIC BUDGET FOR ENTIRE MODEL AT END OF TIME STEP    1, STRESS PERIOD 283
  ------------------------------------------------------------------------------

     CUMULATIVE VOLUMES      L**3       RATES FOR THIS TIME STEP      L**3/T
     ------------------                 ------------------------

           IN:                                      IN:
           ---                                      ---
             STORAGE =        4909.4248               STORAGE =           0.0000
       CONSTANT HEAD =           0.0000         CONSTANT HEAD =           0.0000
       RIVER LEAKAGE =         405.3913         RIVER LEAKAGE =           0.0000
            RECHARGE =        5359.0000              RECHARGE =         156.0000

            TOTAL IN =       10673.8164              TOTAL IN =         156.0000

          OUT:                                     OUT:
          ----                                     ----
             STORAGE =        4794.6157               STORAGE =         141.7236
       CONSTANT HEAD =         895.0440         CONSTANT HEAD =           2.8797
       RIVER LEAKAGE =         854.1546         RIVER LEAKAGE =          11.3969
            RECHARGE =        4130.0000              RECHARGE =           0.0000

           TOTAL OUT =       10673.8145             TOTAL OUT =         156.0002

            IN - OUT =       1.9531E-03              IN - OUT =      -1.9836E-04

 PERCENT DISCREPANCY =           0.00     PERCENT DISCREPANCY =          -0.00






         TIME SUMMARY AT END OF TIME STEP    1 IN STRESS PERIOD  283
                    SECONDS     MINUTES      HOURS       DAYS        YEARS
                    -----------------------------------------------------------
   TIME STEP LENGTH  86400.      1440.0      24.000      1.0000     2.73785E-03
 STRESS PERIOD TIME  86400.      1440.0      24.000      1.0000     2.73785E-03
         TOTAL TIME 2.44512E+07 4.07520E+05  6792.0      283.00     0.77481    
1
1
                            STRESS PERIOD NO.  284, LENGTH =   1.000000    
                            -----------------------------------------------

                              NUMBER OF TIME STEPS =     1

                               MULTIPLIER FOR DELT =     1.000

                            INITIAL TIME STEP SIZE =   1.000000    

 REUSING NON-PARAMETER RIVER REACHES FROM LAST STRESS PERIOD

      2 RIVER REACHES

                 RECHARGE = -8.000000E-04
 
 SOLVING FOR HEAD 

 OUTPUT CONTROL FOR STRESS PERIOD  284   TIME STEP    1
    SAVE HEAD FOR ALL LAYERS

 HEAD WILL BE SAVED ON UNIT   51 AT END OF TIME STEP    1, STRESS PERIOD  284
1
  VOLUMETRIC BUDGET FOR ENTIRE MODEL AT END OF TIME STEP    1, STRESS PERIOD 284
  ------------------------------------------------------------------------------

     CUMULATIVE VOLUMES      L**3       RATES FOR THIS TIME STEP      L**3/T
     ------------------                 ------------------------

           IN:                                      IN:
           ---                                      ---
             STORAGE =        4928.8101               STORAGE =          19.3853
       CONSTANT HEAD =           0.0000         CONSTANT HEAD =           0.0000
       RIVER LEAKAGE =         405.3913         RIVER LEAKAGE =           0.0000
            RECHARGE =        5359.0000              RECHARGE =           0.0000

            TOTAL IN =       10693.2012              TOTAL IN =          19.3853

          OUT:                                     OUT:
          ----                                     ----
             STORAGE =        4794.9355               STORAGE =           0.3196
       CONSTANT HEAD =         897.9290         CONSTANT HEAD =           2.8850
       RIVER LEAKAGE =         862.3354         RIVER LEAKAGE =           8.1808
            RECHARGE =        4138.0000              RECHARGE =           8.0000

           TOTAL OUT =       10693.2002             TOTAL OUT =          19.3854

            IN - OUT =       9.7656E-04              IN - OUT =      -1.1826E-04

 PERCENT DISCREPANCY =           0.00     PERCENT DISCREPANCY =          -0.00






         TIME SUMMARY AT END OF TIME STEP    1 IN STRESS PERIOD  284
                    SECONDS     MINUTES      HOURS       DAYS        YEARS
                    -----------------------------------------------------------
   TIME STEP LENGTH  86400.      1440.0      24.000      1.0000     2.73785E-03
 STRESS PERIOD TIME  86400.      1440.0      24.000      1.0000     2.73785E-03
         TOTAL TIME 2.45376E+07 4.08960E+05  6816.0      284.00     0.77755    
1
1
                            STRESS PERIOD NO.  285, LENGTH =   1.000000    
                            -----------------------------------------------

                              NUMBER OF TIME STEPS =     1

                               MULTIPLIER FOR DELT =     1.000

                            INITIAL TIME STEP SIZE =   1.000000    

 REUSING NON-PARAMETER RIVER REACHES FROM LAST STRESS PERIOD

      2 RIVER REACHES

                 RECHARGE =  1.020000E-02
 
 SOLVING FOR HEAD 

 OUTPUT CONTROL FOR STRESS PERIOD  285   TIME STEP    1
    SAVE HEAD FOR ALL LAYERS

 HEAD WILL BE SAVED ON UNIT   51 AT END OF TIME STEP    1, STRESS PERIOD  285
1
  VOLUMETRIC BUDGET FOR ENTIRE MODEL AT END OF TIME STEP    1, STRESS PERIOD 285
  ------------------------------------------------------------------------------

     CUMULATIVE VOLUMES      L**3       RATES FOR THIS TIME STEP      L**3/T
     ------------------                 ------------------------

           IN:                                      IN:
           ---                                      ---
             STORAGE =        4928.8101               STORAGE =           0.0000
       CONSTANT HEAD =           0.0000         CONSTANT HEAD =           0.0000
       RIVER LEAKAGE =         405.3913         RIVER LEAKAGE =           0.0000
            RECHARGE =        5461.0000              RECHARGE =         102.0000

            TOTAL IN =       10795.2012              TOTAL IN =         102.0000

          OUT:                                     OUT:
          ----                                     ----
             STORAGE =        4883.5166               STORAGE =          88.5809
       CONSTANT HEAD =         900.8221         CONSTANT HEAD =           2.8931
       RIVER LEAKAGE =         872.8616         RIVER LEAKAGE =          10.5262
            RECHARGE =        4138.0000              RECHARGE =           0.0000

           TOTAL OUT =       10795.2012             TOTAL OUT =         102.0002

            IN - OUT =           0.0000              IN - OUT =      -1.6785E-04

 PERCENT DISCREPANCY =           0.00     PERCENT DISCREPANCY =          -0.00






         TIME SUMMARY AT END OF TIME STEP    1 IN STRESS PERIOD  285
                    SECONDS     MINUTES      HOURS       DAYS        YEARS
                    -----------------------------------------------------------
   TIME STEP LENGTH  86400.      1440.0      24.000      1.0000     2.73785E-03
 STRESS PERIOD TIME  86400.      1440.0      24.000      1.0000     2.73785E-03
         TOTAL TIME 2.46240E+07 4.10400E+05  6840.0      285.00     0.78029    
1
1
                            STRESS PERIOD NO.  286, LENGTH =   1.000000    
                            -----------------------------------------------

                              NUMBER OF TIME STEPS =     1

                               MULTIPLIER FOR DELT =     1.000

                            INITIAL TIME STEP SIZE =   1.000000    

 REUSING NON-PARAMETER RIVER REACHES FROM LAST STRESS PERIOD

      2 RIVER REACHES

                 RECHARGE = -3.000000E-04
 
 SOLVING FOR HEAD 

 OUTPUT CONTROL FOR STRESS PERIOD  286   TIME STEP    1
    SAVE HEAD FOR ALL LAYERS

 HEAD WILL BE SAVED ON UNIT   51 AT END OF TIME STEP    1, STRESS PERIOD  286
1
  VOLUMETRIC BUDGET FOR ENTIRE MODEL AT END OF TIME STEP    1, STRESS PERIOD 286
  ------------------------------------------------------------------------------

     CUMULATIVE VOLUMES      L**3       RATES FOR THIS TIME STEP      L**3/T
     ------------------                 ------------------------

           IN:                                      IN:
           ---                                      ---
             STORAGE =        4943.3252               STORAGE =          14.5149
       CONSTANT HEAD =           0.0000         CONSTANT HEAD =           0.0000
       RIVER LEAKAGE =         405.3913         RIVER LEAKAGE =           0.0000
            RECHARGE =        5461.0000              RECHARGE =           0.0000

            TOTAL IN =       10809.7168              TOTAL IN =          14.5149

          OUT:                                     OUT:
          ----                                     ----
             STORAGE =        4883.8716               STORAGE =           0.3549
       CONSTANT HEAD =         903.7205         CONSTANT HEAD =           2.8984
       RIVER LEAKAGE =         881.1235         RIVER LEAKAGE =           8.2619
            RECHARGE =        4141.0000              RECHARGE =           3.0000

           TOTAL OUT =       10809.7158             TOTAL OUT =          14.5152

            IN - OUT =       9.7656E-04              IN - OUT =      -2.5654E-04

 PERCENT DISCREPANCY =           0.00     PERCENT DISCREPANCY =          -0.00






         TIME SUMMARY AT END OF TIME STEP    1 IN STRESS PERIOD  286
                    SECONDS     MINUTES      HOURS       DAYS        YEARS
                    -----------------------------------------------------------
   TIME STEP LENGTH  86400.      1440.0      24.000      1.0000     2.73785E-03
 STRESS PERIOD TIME  86400.      1440.0      24.000      1.0000     2.73785E-03
         TOTAL TIME 2.47104E+07 4.11840E+05  6864.0      286.00     0.78303    
1
1
                            STRESS PERIOD NO.  287, LENGTH =   1.000000    
                            -----------------------------------------------

                              NUMBER OF TIME STEPS =     1

                               MULTIPLIER FOR DELT =     1.000

                            INITIAL TIME STEP SIZE =   1.000000    

 REUSING NON-PARAMETER RIVER REACHES FROM LAST STRESS PERIOD

      2 RIVER REACHES

                 RECHARGE = -5.000000E-04
 
 SOLVING FOR HEAD 

 OUTPUT CONTROL FOR STRESS PERIOD  287   TIME STEP    1
    SAVE HEAD FOR ALL LAYERS

 HEAD WILL BE SAVED ON UNIT   51 AT END OF TIME STEP    1, STRESS PERIOD  287
1
  VOLUMETRIC BUDGET FOR ENTIRE MODEL AT END OF TIME STEP    1, STRESS PERIOD 287
  ------------------------------------------------------------------------------

     CUMULATIVE VOLUMES      L**3       RATES FOR THIS TIME STEP      L**3/T
     ------------------                 ------------------------

           IN:                                      IN:
           ---                                      ---
             STORAGE =        4958.5996               STORAGE =          15.2744
       CONSTANT HEAD =           0.0000         CONSTANT HEAD =           0.0000
       RIVER LEAKAGE =         405.3913         RIVER LEAKAGE =           0.0000
            RECHARGE =        5461.0000              RECHARGE =           0.0000

            TOTAL IN =       10824.9902              TOTAL IN =          15.2744

          OUT:                                     OUT:
          ----                                     ----
             STORAGE =        4884.2114               STORAGE =           0.3400
       CONSTANT HEAD =         906.6234         CONSTANT HEAD =           2.9029
       RIVER LEAKAGE =         888.1548         RIVER LEAKAGE =           7.0313
            RECHARGE =        4146.0000              RECHARGE =           5.0000

           TOTAL OUT =       10824.9902             TOTAL OUT =          15.2742

            IN - OUT =           0.0000              IN - OUT =       1.5926E-04

 PERCENT DISCREPANCY =           0.00     PERCENT DISCREPANCY =           0.00






         TIME SUMMARY AT END OF TIME STEP    1 IN STRESS PERIOD  287
                    SECONDS     MINUTES      HOURS       DAYS        YEARS
                    -----------------------------------------------------------
   TIME STEP LENGTH  86400.      1440.0      24.000      1.0000     2.73785E-03
 STRESS PERIOD TIME  86400.      1440.0      24.000      1.0000     2.73785E-03
         TOTAL TIME 2.47968E+07 4.13280E+05  6888.0      287.00     0.78576    
1
1
                            STRESS PERIOD NO.  288, LENGTH =   1.000000    
                            -----------------------------------------------

                              NUMBER OF TIME STEPS =     1

                               MULTIPLIER FOR DELT =     1.000

                            INITIAL TIME STEP SIZE =   1.000000    

 REUSING NON-PARAMETER RIVER REACHES FROM LAST STRESS PERIOD

      2 RIVER REACHES

                 RECHARGE = -1.100000E-03
 
 SOLVING FOR HEAD 

 OUTPUT CONTROL FOR STRESS PERIOD  288   TIME STEP    1
    SAVE HEAD FOR ALL LAYERS

 HEAD WILL BE SAVED ON UNIT   51 AT END OF TIME STEP    1, STRESS PERIOD  288
1
  VOLUMETRIC BUDGET FOR ENTIRE MODEL AT END OF TIME STEP    1, STRESS PERIOD 288
  ------------------------------------------------------------------------------

     CUMULATIVE VOLUMES      L**3       RATES FOR THIS TIME STEP      L**3/T
     ------------------                 ------------------------

           IN:                                      IN:
           ---                                      ---
             STORAGE =        4978.8223               STORAGE =          20.2229
       CONSTANT HEAD =           0.0000         CONSTANT HEAD =           0.0000
       RIVER LEAKAGE =         405.3913         RIVER LEAKAGE =           0.0000
            RECHARGE =        5461.0000              RECHARGE =           0.0000

            TOTAL IN =       10845.2129              TOTAL IN =          20.2229

          OUT:                                     OUT:
          ----                                     ----
             STORAGE =        4884.5342               STORAGE =           0.3226
       CONSTANT HEAD =         909.5300         CONSTANT HEAD =           2.9066
       RIVER LEAKAGE =         894.1483         RIVER LEAKAGE =           5.9935
            RECHARGE =        4157.0000              RECHARGE =          11.0000

           TOTAL OUT =       10845.2129             TOTAL OUT =          20.2227

            IN - OUT =           0.0000              IN - OUT =       1.2779E-04

 PERCENT DISCREPANCY =           0.00     PERCENT DISCREPANCY =           0.00






         TIME SUMMARY AT END OF TIME STEP    1 IN STRESS PERIOD  288
                    SECONDS     MINUTES      HOURS       DAYS        YEARS
                    -----------------------------------------------------------
   TIME STEP LENGTH  86400.      1440.0      24.000      1.0000     2.73785E-03
 STRESS PERIOD TIME  86400.      1440.0      24.000      1.0000     2.73785E-03
         TOTAL TIME 2.48832E+07 4.14720E+05  6912.0      288.00     0.78850    
1
1
                            STRESS PERIOD NO.  289, LENGTH =   1.000000    
                            -----------------------------------------------

                              NUMBER OF TIME STEPS =     1

                               MULTIPLIER FOR DELT =     1.000

                            INITIAL TIME STEP SIZE =   1.000000    

 REUSING NON-PARAMETER RIVER REACHES FROM LAST STRESS PERIOD

      2 RIVER REACHES

                 RECHARGE = -9.000000E-04
 
 SOLVING FOR HEAD 

 OUTPUT CONTROL FOR STRESS PERIOD  289   TIME STEP    1
    SAVE HEAD FOR ALL LAYERS

 HEAD WILL BE SAVED ON UNIT   51 AT END OF TIME STEP    1, STRESS PERIOD  289
1
  VOLUMETRIC BUDGET FOR ENTIRE MODEL AT END OF TIME STEP    1, STRESS PERIOD 289
  ------------------------------------------------------------------------------

     CUMULATIVE VOLUMES      L**3       RATES FOR THIS TIME STEP      L**3/T
     ------------------                 ------------------------

           IN:                                      IN:
           ---                                      ---
             STORAGE =        4996.3457               STORAGE =          17.5233
       CONSTANT HEAD =           0.0000         CONSTANT HEAD =           0.0000
       RIVER LEAKAGE =         405.3913         RIVER LEAKAGE =           0.0000
            RECHARGE =        5461.0000              RECHARGE =           0.0000

            TOTAL IN =       10862.7363              TOTAL IN =          17.5233

          OUT:                                     OUT:
          ----                                     ----
             STORAGE =        4884.8418               STORAGE =           0.3074
       CONSTANT HEAD =         912.4399         CONSTANT HEAD =           2.9099
       RIVER LEAKAGE =         899.4545         RIVER LEAKAGE =           5.3062
            RECHARGE =        4166.0000              RECHARGE =           9.0000

           TOTAL OUT =       10862.7363             TOTAL OUT =          17.5235

            IN - OUT =           0.0000              IN - OUT =      -1.8883E-04

 PERCENT DISCREPANCY =           0.00     PERCENT DISCREPANCY =          -0.00






         TIME SUMMARY AT END OF TIME STEP    1 IN STRESS PERIOD  289
                    SECONDS     MINUTES      HOURS       DAYS        YEARS
                    -----------------------------------------------------------
   TIME STEP LENGTH  86400.      1440.0      24.000      1.0000     2.73785E-03
 STRESS PERIOD TIME  86400.      1440.0      24.000      1.0000     2.73785E-03
         TOTAL TIME 2.49696E+07 4.16160E+05  6936.0      289.00     0.79124    
1
1
                            STRESS PERIOD NO.  290, LENGTH =   1.000000    
                            -----------------------------------------------

                              NUMBER OF TIME STEPS =     1

                               MULTIPLIER FOR DELT =     1.000

                            INITIAL TIME STEP SIZE =   1.000000    

 REUSING NON-PARAMETER RIVER REACHES FROM LAST STRESS PERIOD

      2 RIVER REACHES

                 RECHARGE = -1.600000E-03
 
 SOLVING FOR HEAD 

 OUTPUT CONTROL FOR STRESS PERIOD  290   TIME STEP    1
    SAVE HEAD FOR ALL LAYERS

 HEAD WILL BE SAVED ON UNIT   51 AT END OF TIME STEP    1, STRESS PERIOD  290
1
  VOLUMETRIC BUDGET FOR ENTIRE MODEL AT END OF TIME STEP    1, STRESS PERIOD 290
  ------------------------------------------------------------------------------

     CUMULATIVE VOLUMES      L**3       RATES FOR THIS TIME STEP      L**3/T
     ------------------                 ------------------------

           IN:                                      IN:
           ---                                      ---
             STORAGE =        5020.0449               STORAGE =          23.6991
       CONSTANT HEAD =           0.0000         CONSTANT HEAD =           0.0000
       RIVER LEAKAGE =         405.3913         RIVER LEAKAGE =           0.0000
            RECHARGE =        5461.0000              RECHARGE =           0.0000

            TOTAL IN =       10886.4355              TOTAL IN =          23.6991

          OUT:                                     OUT:
          ----                                     ----
             STORAGE =        4885.1304               STORAGE =           0.2888
       CONSTANT HEAD =         915.3524         CONSTANT HEAD =           2.9125
       RIVER LEAKAGE =         903.9525         RIVER LEAKAGE =           4.4980
            RECHARGE =        4182.0000              RECHARGE =          16.0000

           TOTAL OUT =       10886.4355             TOTAL OUT =          23.6993

            IN - OUT =           0.0000              IN - OUT =      -2.3651E-04

 PERCENT DISCREPANCY =           0.00     PERCENT DISCREPANCY =          -0.00






         TIME SUMMARY AT END OF TIME STEP    1 IN STRESS PERIOD  290
                    SECONDS     MINUTES      HOURS       DAYS        YEARS
                    -----------------------------------------------------------
   TIME STEP LENGTH  86400.      1440.0      24.000      1.0000     2.73785E-03
 STRESS PERIOD TIME  86400.      1440.0      24.000      1.0000     2.73785E-03
         TOTAL TIME 2.50560E+07 4.17600E+05  6960.0      290.00     0.79398    
1
1
                            STRESS PERIOD NO.  291, LENGTH =   1.000000    
                            -----------------------------------------------

                              NUMBER OF TIME STEPS =     1

                               MULTIPLIER FOR DELT =     1.000

                            INITIAL TIME STEP SIZE =   1.000000    

 REUSING NON-PARAMETER RIVER REACHES FROM LAST STRESS PERIOD

      2 RIVER REACHES

                 RECHARGE = -1.700000E-03
 
 SOLVING FOR HEAD 

 OUTPUT CONTROL FOR STRESS PERIOD  291   TIME STEP    1
    SAVE HEAD FOR ALL LAYERS

 HEAD WILL BE SAVED ON UNIT   51 AT END OF TIME STEP    1, STRESS PERIOD  291
1
  VOLUMETRIC BUDGET FOR ENTIRE MODEL AT END OF TIME STEP    1, STRESS PERIOD 291
  ------------------------------------------------------------------------------

     CUMULATIVE VOLUMES      L**3       RATES FOR THIS TIME STEP      L**3/T
     ------------------                 ------------------------

           IN:                                      IN:
           ---                                      ---
             STORAGE =        5044.0654               STORAGE =          24.0206
       CONSTANT HEAD =           0.0000         CONSTANT HEAD =           0.0000
       RIVER LEAKAGE =         405.3913         RIVER LEAKAGE =           0.0000
            RECHARGE =        5461.0000              RECHARGE =           0.0000

            TOTAL IN =       10910.4570              TOTAL IN =          24.0206

          OUT:                                     OUT:
          ----                                     ----
             STORAGE =        4885.4009               STORAGE =           0.2704
       CONSTANT HEAD =         918.2672         CONSTANT HEAD =           2.9147
       RIVER LEAKAGE =         907.7877         RIVER LEAKAGE =           3.8353
            RECHARGE =        4199.0000              RECHARGE =          17.0000

           TOTAL OUT =       10910.4551             TOTAL OUT =          24.0204

            IN - OUT =       1.9531E-03              IN - OUT =       2.1172E-04

 PERCENT DISCREPANCY =           0.00     PERCENT DISCREPANCY =           0.00






         TIME SUMMARY AT END OF TIME STEP    1 IN STRESS PERIOD  291
                    SECONDS     MINUTES      HOURS       DAYS        YEARS
                    -----------------------------------------------------------
   TIME STEP LENGTH  86400.      1440.0      24.000      1.0000     2.73785E-03
 STRESS PERIOD TIME  86400.      1440.0      24.000      1.0000     2.73785E-03
         TOTAL TIME 2.51424E+07 4.19040E+05  6984.0      291.00     0.79671    
1
1
                            STRESS PERIOD NO.  292, LENGTH =   1.000000    
                            -----------------------------------------------

                              NUMBER OF TIME STEPS =     1

                               MULTIPLIER FOR DELT =     1.000

                            INITIAL TIME STEP SIZE =   1.000000    

 REUSING NON-PARAMETER RIVER REACHES FROM LAST STRESS PERIOD

      2 RIVER REACHES

                 RECHARGE = -1.600000E-03
 
 SOLVING FOR HEAD 

 OUTPUT CONTROL FOR STRESS PERIOD  292   TIME STEP    1
    SAVE HEAD FOR ALL LAYERS

 HEAD WILL BE SAVED ON UNIT   51 AT END OF TIME STEP    1, STRESS PERIOD  292
1
  VOLUMETRIC BUDGET FOR ENTIRE MODEL AT END OF TIME STEP    1, STRESS PERIOD 292
  ------------------------------------------------------------------------------

     CUMULATIVE VOLUMES      L**3       RATES FOR THIS TIME STEP      L**3/T
     ------------------                 ------------------------

           IN:                                      IN:
           ---                                      ---
             STORAGE =        5066.5547               STORAGE =          22.4894
       CONSTANT HEAD =           0.0000         CONSTANT HEAD =           0.0000
       RIVER LEAKAGE =         405.3913         RIVER LEAKAGE =           0.0000
            RECHARGE =        5461.0000              RECHARGE =           0.0000

            TOTAL IN =       10932.9453              TOTAL IN =          22.4894

          OUT:                                     OUT:
          ----                                     ----
             STORAGE =        4885.6543               STORAGE =           0.2533
       CONSTANT HEAD =         921.1838         CONSTANT HEAD =           2.9167
       RIVER LEAKAGE =         911.1074         RIVER LEAKAGE =           3.3197
            RECHARGE =        4215.0000              RECHARGE =          16.0000

           TOTAL OUT =       10932.9453             TOTAL OUT =          22.4896

            IN - OUT =           0.0000              IN - OUT =      -2.4033E-04

 PERCENT DISCREPANCY =           0.00     PERCENT DISCREPANCY =          -0.00






         TIME SUMMARY AT END OF TIME STEP    1 IN STRESS PERIOD  292
                    SECONDS     MINUTES      HOURS       DAYS        YEARS
                    -----------------------------------------------------------
   TIME STEP LENGTH  86400.      1440.0      24.000      1.0000     2.73785E-03
 STRESS PERIOD TIME  86400.      1440.0      24.000      1.0000     2.73785E-03
         TOTAL TIME 2.52288E+07 4.20480E+05  7008.0      292.00     0.79945    
1
1
                            STRESS PERIOD NO.  293, LENGTH =   1.000000    
                            -----------------------------------------------

                              NUMBER OF TIME STEPS =     1

                               MULTIPLIER FOR DELT =     1.000

                            INITIAL TIME STEP SIZE =   1.000000    

 REUSING NON-PARAMETER RIVER REACHES FROM LAST STRESS PERIOD

      2 RIVER REACHES

                 RECHARGE = -6.000000E-04
 
 SOLVING FOR HEAD 

 OUTPUT CONTROL FOR STRESS PERIOD  293   TIME STEP    1
    SAVE HEAD FOR ALL LAYERS

 HEAD WILL BE SAVED ON UNIT   51 AT END OF TIME STEP    1, STRESS PERIOD  293
1
  VOLUMETRIC BUDGET FOR ENTIRE MODEL AT END OF TIME STEP    1, STRESS PERIOD 293
  ------------------------------------------------------------------------------

     CUMULATIVE VOLUMES      L**3       RATES FOR THIS TIME STEP      L**3/T
     ------------------                 ------------------------

           IN:                                      IN:
           ---                                      ---
             STORAGE =        5078.9297               STORAGE =          12.3751
       CONSTANT HEAD =           0.0000         CONSTANT HEAD =           0.0000
       RIVER LEAKAGE =         405.3913         RIVER LEAKAGE =           0.0000
            RECHARGE =        5461.0000              RECHARGE =           0.0000

            TOTAL IN =       10945.3203              TOTAL IN =          12.3751

          OUT:                                     OUT:
          ----                                     ----
             STORAGE =        4885.8970               STORAGE =           0.2429
       CONSTANT HEAD =         924.1024         CONSTANT HEAD =           2.9186
       RIVER LEAKAGE =         914.3209         RIVER LEAKAGE =           3.2135
            RECHARGE =        4221.0000              RECHARGE =           6.0000

           TOTAL OUT =       10945.3203             TOTAL OUT =          12.3750

            IN - OUT =           0.0000              IN - OUT =       5.8174E-05

 PERCENT DISCREPANCY =           0.00     PERCENT DISCREPANCY =           0.00






         TIME SUMMARY AT END OF TIME STEP    1 IN STRESS PERIOD  293
                    SECONDS     MINUTES      HOURS       DAYS        YEARS
                    -----------------------------------------------------------
   TIME STEP LENGTH  86400.      1440.0      24.000      1.0000     2.73785E-03
 STRESS PERIOD TIME  86400.      1440.0      24.000      1.0000     2.73785E-03
         TOTAL TIME 2.53152E+07 4.21920E+05  7032.0      293.00     0.80219    
1
1
                            STRESS PERIOD NO.  294, LENGTH =   1.000000    
                            -----------------------------------------------

                              NUMBER OF TIME STEPS =     1

                               MULTIPLIER FOR DELT =     1.000

                            INITIAL TIME STEP SIZE =   1.000000    

 REUSING NON-PARAMETER RIVER REACHES FROM LAST STRESS PERIOD

      2 RIVER REACHES

                 RECHARGE = -1.300000E-03
 
 SOLVING FOR HEAD 

 OUTPUT CONTROL FOR STRESS PERIOD  294   TIME STEP    1
    SAVE HEAD FOR ALL LAYERS

 HEAD WILL BE SAVED ON UNIT   51 AT END OF TIME STEP    1, STRESS PERIOD  294
1
  VOLUMETRIC BUDGET FOR ENTIRE MODEL AT END OF TIME STEP    1, STRESS PERIOD 294
  ------------------------------------------------------------------------------

     CUMULATIVE VOLUMES      L**3       RATES FOR THIS TIME STEP      L**3/T
     ------------------                 ------------------------

           IN:                                      IN:
           ---                                      ---
             STORAGE =        5097.8569               STORAGE =          18.9272
       CONSTANT HEAD =           0.0000         CONSTANT HEAD =           0.0000
       RIVER LEAKAGE =         405.3913         RIVER LEAKAGE =           0.0000
            RECHARGE =        5461.0000              RECHARGE =           0.0000

            TOTAL IN =       10964.2480              TOTAL IN =          18.9272

          OUT:                                     OUT:
          ----                                     ----
             STORAGE =        4886.1255               STORAGE =           0.2285
       CONSTANT HEAD =         927.0226         CONSTANT HEAD =           2.9202
       RIVER LEAKAGE =         917.0993         RIVER LEAKAGE =           2.7785
            RECHARGE =        4234.0000              RECHARGE =          13.0000

           TOTAL OUT =       10964.2471             TOTAL OUT =          18.9272

            IN - OUT =       9.7656E-04              IN - OUT =      -7.6294E-06

 PERCENT DISCREPANCY =           0.00     PERCENT DISCREPANCY =          -0.00






         TIME SUMMARY AT END OF TIME STEP    1 IN STRESS PERIOD  294
                    SECONDS     MINUTES      HOURS       DAYS        YEARS
                    -----------------------------------------------------------
   TIME STEP LENGTH  86400.      1440.0      24.000      1.0000     2.73785E-03
 STRESS PERIOD TIME  86400.      1440.0      24.000      1.0000     2.73785E-03
         TOTAL TIME 2.54016E+07 4.23360E+05  7056.0      294.00     0.80493    
1
1
                            STRESS PERIOD NO.  295, LENGTH =   1.000000    
                            -----------------------------------------------

                              NUMBER OF TIME STEPS =     1

                               MULTIPLIER FOR DELT =     1.000

                            INITIAL TIME STEP SIZE =   1.000000    

 REUSING NON-PARAMETER RIVER REACHES FROM LAST STRESS PERIOD

      2 RIVER REACHES

                 RECHARGE = -1.275000E-03
 
 SOLVING FOR HEAD 

 OUTPUT CONTROL FOR STRESS PERIOD  295   TIME STEP    1
    SAVE HEAD FOR ALL LAYERS

 HEAD WILL BE SAVED ON UNIT   51 AT END OF TIME STEP    1, STRESS PERIOD  295
1
  VOLUMETRIC BUDGET FOR ENTIRE MODEL AT END OF TIME STEP    1, STRESS PERIOD 295
  ------------------------------------------------------------------------------

     CUMULATIVE VOLUMES      L**3       RATES FOR THIS TIME STEP      L**3/T
     ------------------                 ------------------------

           IN:                                      IN:
           ---                                      ---
             STORAGE =        5116.1768               STORAGE =          18.3200
       CONSTANT HEAD =           0.0000         CONSTANT HEAD =           0.0000
       RIVER LEAKAGE =         405.3913         RIVER LEAKAGE =           0.0000
            RECHARGE =        5461.0000              RECHARGE =           0.0000

            TOTAL IN =       10982.5684              TOTAL IN =          18.3200

          OUT:                                     OUT:
          ----                                     ----
             STORAGE =        4886.3403               STORAGE =           0.2148
       CONSTANT HEAD =         929.9443         CONSTANT HEAD =           2.9216
       RIVER LEAKAGE =         919.5327         RIVER LEAKAGE =           2.4334
            RECHARGE =        4246.7500              RECHARGE =          12.7500

           TOTAL OUT =       10982.5674             TOTAL OUT =          18.3198

            IN - OUT =       9.7656E-04              IN - OUT =       1.3542E-04

 PERCENT DISCREPANCY =           0.00     PERCENT DISCREPANCY =           0.00






         TIME SUMMARY AT END OF TIME STEP    1 IN STRESS PERIOD  295
                    SECONDS     MINUTES      HOURS       DAYS        YEARS
                    -----------------------------------------------------------
   TIME STEP LENGTH  86400.      1440.0      24.000      1.0000     2.73785E-03
 STRESS PERIOD TIME  86400.      1440.0      24.000      1.0000     2.73785E-03
         TOTAL TIME 2.54880E+07 4.24800E+05  7080.0      295.00     0.80767    
1
1
                            STRESS PERIOD NO.  296, LENGTH =   1.000000    
                            -----------------------------------------------

                              NUMBER OF TIME STEPS =     1

                               MULTIPLIER FOR DELT =     1.000

                            INITIAL TIME STEP SIZE =   1.000000    

 REUSING NON-PARAMETER RIVER REACHES FROM LAST STRESS PERIOD

      2 RIVER REACHES

                 RECHARGE =  6.800000E-03
 
 SOLVING FOR HEAD 

 OUTPUT CONTROL FOR STRESS PERIOD  296   TIME STEP    1
    SAVE HEAD FOR ALL LAYERS

 HEAD WILL BE SAVED ON UNIT   51 AT END OF TIME STEP    1, STRESS PERIOD  296
1
  VOLUMETRIC BUDGET FOR ENTIRE MODEL AT END OF TIME STEP    1, STRESS PERIOD 296
  ------------------------------------------------------------------------------

     CUMULATIVE VOLUMES      L**3       RATES FOR THIS TIME STEP      L**3/T
     ------------------                 ------------------------

           IN:                                      IN:
           ---                                      ---
             STORAGE =        5116.1768               STORAGE =           0.0000
       CONSTANT HEAD =           0.0000         CONSTANT HEAD =           0.0000
       RIVER LEAKAGE =         405.3913         RIVER LEAKAGE =           0.0000
            RECHARGE =        5529.0000              RECHARGE =          68.0000

            TOTAL IN =       11050.5684              TOTAL IN =          68.0000

          OUT:                                     OUT:
          ----                                     ----
             STORAGE =        4946.4619               STORAGE =          60.1214
       CONSTANT HEAD =         932.8699         CONSTANT HEAD =           2.9257
       RIVER LEAKAGE =         924.4855         RIVER LEAKAGE =           4.9528
            RECHARGE =        4246.7500              RECHARGE =           0.0000

           TOTAL OUT =       11050.5674             TOTAL OUT =          67.9998

            IN - OUT =       9.7656E-04              IN - OUT =       1.8311E-04

 PERCENT DISCREPANCY =           0.00     PERCENT DISCREPANCY =           0.00






         TIME SUMMARY AT END OF TIME STEP    1 IN STRESS PERIOD  296
                    SECONDS     MINUTES      HOURS       DAYS        YEARS
                    -----------------------------------------------------------
   TIME STEP LENGTH  86400.      1440.0      24.000      1.0000     2.73785E-03
 STRESS PERIOD TIME  86400.      1440.0      24.000      1.0000     2.73785E-03
         TOTAL TIME 2.55744E+07 4.26240E+05  7104.0      296.00     0.81040    
1
1
                            STRESS PERIOD NO.  297, LENGTH =   1.000000    
                            -----------------------------------------------

                              NUMBER OF TIME STEPS =     1

                               MULTIPLIER FOR DELT =     1.000

                            INITIAL TIME STEP SIZE =   1.000000    

 REUSING NON-PARAMETER RIVER REACHES FROM LAST STRESS PERIOD

      2 RIVER REACHES

                 RECHARGE = -4.000000E-04
 
 SOLVING FOR HEAD 

 OUTPUT CONTROL FOR STRESS PERIOD  297   TIME STEP    1
    SAVE HEAD FOR ALL LAYERS

 HEAD WILL BE SAVED ON UNIT   51 AT END OF TIME STEP    1, STRESS PERIOD  297
1
  VOLUMETRIC BUDGET FOR ENTIRE MODEL AT END OF TIME STEP    1, STRESS PERIOD 297
  ------------------------------------------------------------------------------

     CUMULATIVE VOLUMES      L**3       RATES FOR THIS TIME STEP      L**3/T
     ------------------                 ------------------------

           IN:                                      IN:
           ---                                      ---
             STORAGE =        5127.2583               STORAGE =          11.0814
       CONSTANT HEAD =           0.0000         CONSTANT HEAD =           0.0000
       RIVER LEAKAGE =         405.3913         RIVER LEAKAGE =           0.0000
            RECHARGE =        5529.0000              RECHARGE =           0.0000

            TOTAL IN =       11061.6494              TOTAL IN =          11.0814

          OUT:                                     OUT:
          ----                                     ----
             STORAGE =        4946.7021               STORAGE =           0.2403
       CONSTANT HEAD =         935.7982         CONSTANT HEAD =           2.9283
       RIVER LEAKAGE =         928.3981         RIVER LEAKAGE =           3.9126
            RECHARGE =        4250.7500              RECHARGE =           4.0000

           TOTAL OUT =       11061.6484             TOTAL OUT =          11.0812

            IN - OUT =       9.7656E-04              IN - OUT =       2.0123E-04

 PERCENT DISCREPANCY =           0.00     PERCENT DISCREPANCY =           0.00






         TIME SUMMARY AT END OF TIME STEP    1 IN STRESS PERIOD  297
                    SECONDS     MINUTES      HOURS       DAYS        YEARS
                    -----------------------------------------------------------
   TIME STEP LENGTH  86400.      1440.0      24.000      1.0000     2.73785E-03
 STRESS PERIOD TIME  86400.      1440.0      24.000      1.0000     2.73785E-03
         TOTAL TIME 2.56608E+07 4.27680E+05  7128.0      297.00     0.81314    
1
1
                            STRESS PERIOD NO.  298, LENGTH =   1.000000    
                            -----------------------------------------------

                              NUMBER OF TIME STEPS =     1

                               MULTIPLIER FOR DELT =     1.000

                            INITIAL TIME STEP SIZE =   1.000000    

 REUSING NON-PARAMETER RIVER REACHES FROM LAST STRESS PERIOD

      2 RIVER REACHES

                 RECHARGE =  1.250000E-02
 
 SOLVING FOR HEAD 

 OUTPUT CONTROL FOR STRESS PERIOD  298   TIME STEP    1
    SAVE HEAD FOR ALL LAYERS

 HEAD WILL BE SAVED ON UNIT   51 AT END OF TIME STEP    1, STRESS PERIOD  298
1
  VOLUMETRIC BUDGET FOR ENTIRE MODEL AT END OF TIME STEP    1, STRESS PERIOD 298
  ------------------------------------------------------------------------------

     CUMULATIVE VOLUMES      L**3       RATES FOR THIS TIME STEP      L**3/T
     ------------------                 ------------------------

           IN:                                      IN:
           ---                                      ---
             STORAGE =        5127.2583               STORAGE =           0.0000
       CONSTANT HEAD =           0.0000         CONSTANT HEAD =           0.0000
       RIVER LEAKAGE =         405.3913         RIVER LEAKAGE =           0.0000
            RECHARGE =        5654.0000              RECHARGE =         125.0000

            TOTAL IN =       11186.6494              TOTAL IN =         125.0000

          OUT:                                     OUT:
          ----                                     ----
             STORAGE =        5060.7944               STORAGE =         114.0921
       CONSTANT HEAD =         938.7332         CONSTANT HEAD =           2.9350
       RIVER LEAKAGE =         936.3710         RIVER LEAKAGE =           7.9729
            RECHARGE =        4250.7500              RECHARGE =           0.0000

           TOTAL OUT =       11186.6484             TOTAL OUT =         125.0000

            IN - OUT =       9.7656E-04              IN - OUT =       7.6294E-06

 PERCENT DISCREPANCY =           0.00     PERCENT DISCREPANCY =           0.00






         TIME SUMMARY AT END OF TIME STEP    1 IN STRESS PERIOD  298
                    SECONDS     MINUTES      HOURS       DAYS        YEARS
                    -----------------------------------------------------------
   TIME STEP LENGTH  86400.      1440.0      24.000      1.0000     2.73785E-03
 STRESS PERIOD TIME  86400.      1440.0      24.000      1.0000     2.73785E-03
         TOTAL TIME 2.57472E+07 4.29120E+05  7152.0      298.00     0.81588    
1

 Run end date and time (yyyy/mm/dd hh:mm:ss): 2018/10/26 16:42:09
 Elapsed run time:  0.622 Seconds

